data_ABEXEM_clean

_audit_creation_method RASPA-1.0
_audit_creation_date 2019-9-10
_audit_author_name 'nscc-gz_material_1'

_cell_length_a    12.135
_cell_length_b    11.0417
_cell_length_c    19.6509
_cell_angle_alpha 90
_cell_angle_beta  90
_cell_angle_gamma 90
_cell_volume      47394.8

_symmetry_cell_setting          orthorhombic
_symmetry_space_group_name_Hall 'P 1'
_symmetry_space_group_name_H-M  'P 1'
_symmetry_Int_Tables_number     1

_symmetry_equiv_pos_as_xyz 'x,y,z'

loop_
_atom_site_label
_atom_site_type_symbol
_atom_site_fract_x
_atom_site_fract_y
_atom_site_fract_z
_atom_site_charge
La1      La     0.280136666667     0.121390000000     0.439320000000     0          
La1      La     0.280136666667     0.121390000000     0.939320000000     0          
La1      La     0.280136666667     0.454723333333     0.439320000000     0          
La1      La     0.280136666667     0.454723333333     0.939320000000     0          
La1      La     0.280136666667     0.788056666667     0.439320000000     0          
La1      La     0.280136666667     0.788056666667     0.939320000000     0          
La1      La     0.613470000000     0.121390000000     0.439320000000     0          
La1      La     0.613470000000     0.121390000000     0.939320000000     0          
La1      La     0.613470000000     0.454723333333     0.439320000000     0          
La1      La     0.613470000000     0.454723333333     0.939320000000     0          
La1      La     0.613470000000     0.788056666667     0.439320000000     0          
La1      La     0.613470000000     0.788056666667     0.939320000000     0          
La1      La     0.946803333333     0.121390000000     0.439320000000     0          
La1      La     0.946803333333     0.121390000000     0.939320000000     0          
La1      La     0.946803333333     0.454723333333     0.439320000000     0          
La1      La     0.946803333333     0.454723333333     0.939320000000     0          
La1      La     0.946803333333     0.788056666667     0.439320000000     0          
La1      La     0.946803333333     0.788056666667     0.939320000000     0          
La2      La     0.006023333333     0.294530000000     0.332435000000     0          
La2      La     0.327310000000     0.038803333333     0.082435000000     0          
La2      La     0.006023333333     0.294530000000     0.832435000000     0          
La2      La     0.327310000000     0.038803333333     0.582435000000     0          
La2      La     0.006023333333     0.627863333333     0.332435000000     0          
La2      La     0.327310000000     0.372136666667     0.082435000000     0          
La2      La     0.006023333333     0.627863333333     0.832435000000     0          
La2      La     0.327310000000     0.372136666667     0.582435000000     0          
La2      La     0.006023333333     0.961196666667     0.332435000000     0          
La2      La     0.327310000000     0.705470000000     0.082435000000     0          
La2      La     0.006023333333     0.961196666667     0.832435000000     0          
La2      La     0.327310000000     0.705470000000     0.582435000000     0          
La2      La     0.339356666667     0.294530000000     0.332435000000     0          
La2      La     0.660643333333     0.038803333333     0.082435000000     0          
La2      La     0.339356666667     0.294530000000     0.832435000000     0          
La2      La     0.660643333333     0.038803333333     0.582435000000     0          
La2      La     0.339356666667     0.627863333333     0.332435000000     0          
La2      La     0.660643333333     0.372136666667     0.082435000000     0          
La2      La     0.339356666667     0.627863333333     0.832435000000     0          
La2      La     0.660643333333     0.372136666667     0.582435000000     0          
La2      La     0.339356666667     0.961196666667     0.332435000000     0          
La2      La     0.660643333333     0.705470000000     0.082435000000     0          
La2      La     0.339356666667     0.961196666667     0.832435000000     0          
La2      La     0.660643333333     0.705470000000     0.582435000000     0          
La2      La     0.672690000000     0.294530000000     0.332435000000     0          
La2      La     0.993976666667     0.038803333333     0.082435000000     0          
La2      La     0.672690000000     0.294530000000     0.832435000000     0          
La2      La     0.993976666667     0.038803333333     0.582435000000     0          
La2      La     0.672690000000     0.627863333333     0.332435000000     0          
La2      La     0.993976666667     0.372136666667     0.082435000000     0          
La2      La     0.672690000000     0.627863333333     0.832435000000     0          
La2      La     0.993976666667     0.372136666667     0.582435000000     0          
La2      La     0.672690000000     0.961196666667     0.332435000000     0          
La2      La     0.993976666667     0.705470000000     0.082435000000     0          
La2      La     0.672690000000     0.961196666667     0.832435000000     0          
La2      La     0.993976666667     0.705470000000     0.582435000000     0          
N1       N      0.291200000000     0.091633333333     0.375150000000     0          
N1       N      0.042133333333     0.241700000000     0.125150000000     0          
N1       N      0.208800000000     0.258300000000     0.125150000000     0          
N1       N      0.124533333333     0.075033333333     0.375150000000     0          
N1       N      0.291200000000     0.091633333333     0.875150000000     0          
N1       N      0.042133333333     0.241700000000     0.625150000000     0          
N1       N      0.208800000000     0.258300000000     0.625150000000     0          
N1       N      0.124533333333     0.075033333333     0.875150000000     0          
N1       N      0.291200000000     0.424966666667     0.375150000000     0          
N1       N      0.042133333333     0.575033333333     0.125150000000     0          
N1       N      0.208800000000     0.591633333333     0.125150000000     0          
N1       N      0.124533333333     0.408366666667     0.375150000000     0          
N1       N      0.291200000000     0.424966666667     0.875150000000     0          
N1       N      0.042133333333     0.575033333333     0.625150000000     0          
N1       N      0.208800000000     0.591633333333     0.625150000000     0          
N1       N      0.124533333333     0.408366666667     0.875150000000     0          
N1       N      0.291200000000     0.758300000000     0.375150000000     0          
N1       N      0.042133333333     0.908366666667     0.125150000000     0          
N1       N      0.208800000000     0.924966666667     0.125150000000     0          
N1       N      0.124533333333     0.741700000000     0.375150000000     0          
N1       N      0.291200000000     0.758300000000     0.875150000000     0          
N1       N      0.042133333333     0.908366666667     0.625150000000     0          
N1       N      0.208800000000     0.924966666667     0.625150000000     0          
N1       N      0.124533333333     0.741700000000     0.875150000000     0          
N1       N      0.624533333333     0.091633333333     0.375150000000     0          
N1       N      0.375466666667     0.241700000000     0.125150000000     0          
N1       N      0.542133333333     0.258300000000     0.125150000000     0          
N1       N      0.457866666667     0.075033333333     0.375150000000     0          
N1       N      0.624533333333     0.091633333333     0.875150000000     0          
N1       N      0.375466666667     0.241700000000     0.625150000000     0          
N1       N      0.542133333333     0.258300000000     0.625150000000     0          
N1       N      0.457866666667     0.075033333333     0.875150000000     0          
N1       N      0.624533333333     0.424966666667     0.375150000000     0          
N1       N      0.375466666667     0.575033333333     0.125150000000     0          
N1       N      0.542133333333     0.591633333333     0.125150000000     0          
N1       N      0.457866666667     0.408366666667     0.375150000000     0          
N1       N      0.624533333333     0.424966666667     0.875150000000     0          
N1       N      0.375466666667     0.575033333333     0.625150000000     0          
N1       N      0.542133333333     0.591633333333     0.625150000000     0          
N1       N      0.457866666667     0.408366666667     0.875150000000     0          
N1       N      0.624533333333     0.758300000000     0.375150000000     0          
N1       N      0.375466666667     0.908366666667     0.125150000000     0          
N1       N      0.542133333333     0.924966666667     0.125150000000     0          
N1       N      0.457866666667     0.741700000000     0.375150000000     0          
N1       N      0.624533333333     0.758300000000     0.875150000000     0          
N1       N      0.375466666667     0.908366666667     0.625150000000     0          
N1       N      0.542133333333     0.924966666667     0.625150000000     0          
N1       N      0.457866666667     0.741700000000     0.875150000000     0          
N1       N      0.957866666667     0.091633333333     0.375150000000     0          
N1       N      0.708800000000     0.241700000000     0.125150000000     0          
N1       N      0.875466666667     0.258300000000     0.125150000000     0          
N1       N      0.791200000000     0.075033333333     0.375150000000     0          
N1       N      0.957866666667     0.091633333333     0.875150000000     0          
N1       N      0.708800000000     0.241700000000     0.625150000000     0          
N1       N      0.875466666667     0.258300000000     0.625150000000     0          
N1       N      0.791200000000     0.075033333333     0.875150000000     0          
N1       N      0.957866666667     0.424966666667     0.375150000000     0          
N1       N      0.708800000000     0.575033333333     0.125150000000     0          
N1       N      0.875466666667     0.591633333333     0.125150000000     0          
N1       N      0.791200000000     0.408366666667     0.375150000000     0          
N1       N      0.957866666667     0.424966666667     0.875150000000     0          
N1       N      0.708800000000     0.575033333333     0.625150000000     0          
N1       N      0.875466666667     0.591633333333     0.625150000000     0          
N1       N      0.791200000000     0.408366666667     0.875150000000     0          
N1       N      0.957866666667     0.758300000000     0.375150000000     0          
N1       N      0.708800000000     0.908366666667     0.125150000000     0          
N1       N      0.875466666667     0.924966666667     0.125150000000     0          
N1       N      0.791200000000     0.741700000000     0.375150000000     0          
N1       N      0.957866666667     0.758300000000     0.875150000000     0          
N1       N      0.708800000000     0.908366666667     0.625150000000     0          
N1       N      0.875466666667     0.924966666667     0.625150000000     0          
N1       N      0.791200000000     0.741700000000     0.875150000000     0          
C1       C      0.310900000000     0.058766666667     0.368500000000     0          
C1       C      0.022433333333     0.274566666667     0.118500000000     0          
C1       C      0.189100000000     0.225433333333     0.118500000000     0          
C1       C      0.144233333333     0.107900000000     0.368500000000     0          
C1       C      0.310900000000     0.058766666667     0.868500000000     0          
C1       C      0.022433333333     0.274566666667     0.618500000000     0          
C1       C      0.189100000000     0.225433333333     0.618500000000     0          
C1       C      0.144233333333     0.107900000000     0.868500000000     0          
C1       C      0.310900000000     0.392100000000     0.368500000000     0          
C1       C      0.022433333333     0.607900000000     0.118500000000     0          
C1       C      0.189100000000     0.558766666667     0.118500000000     0          
C1       C      0.144233333333     0.441233333333     0.368500000000     0          
C1       C      0.310900000000     0.392100000000     0.868500000000     0          
C1       C      0.022433333333     0.607900000000     0.618500000000     0          
C1       C      0.189100000000     0.558766666667     0.618500000000     0          
C1       C      0.144233333333     0.441233333333     0.868500000000     0          
C1       C      0.310900000000     0.725433333333     0.368500000000     0          
C1       C      0.022433333333     0.941233333333     0.118500000000     0          
C1       C      0.189100000000     0.892100000000     0.118500000000     0          
C1       C      0.144233333333     0.774566666667     0.368500000000     0          
C1       C      0.310900000000     0.725433333333     0.868500000000     0          
C1       C      0.022433333333     0.941233333333     0.618500000000     0          
C1       C      0.189100000000     0.892100000000     0.618500000000     0          
C1       C      0.144233333333     0.774566666667     0.868500000000     0          
C1       C      0.644233333333     0.058766666667     0.368500000000     0          
C1       C      0.355766666667     0.274566666667     0.118500000000     0          
C1       C      0.522433333333     0.225433333333     0.118500000000     0          
C1       C      0.477566666667     0.107900000000     0.368500000000     0          
C1       C      0.644233333333     0.058766666667     0.868500000000     0          
C1       C      0.355766666667     0.274566666667     0.618500000000     0          
C1       C      0.522433333333     0.225433333333     0.618500000000     0          
C1       C      0.477566666667     0.107900000000     0.868500000000     0          
C1       C      0.644233333333     0.392100000000     0.368500000000     0          
C1       C      0.355766666667     0.607900000000     0.118500000000     0          
C1       C      0.522433333333     0.558766666667     0.118500000000     0          
C1       C      0.477566666667     0.441233333333     0.368500000000     0          
C1       C      0.644233333333     0.392100000000     0.868500000000     0          
C1       C      0.355766666667     0.607900000000     0.618500000000     0          
C1       C      0.522433333333     0.558766666667     0.618500000000     0          
C1       C      0.477566666667     0.441233333333     0.868500000000     0          
C1       C      0.644233333333     0.725433333333     0.368500000000     0          
C1       C      0.355766666667     0.941233333333     0.118500000000     0          
C1       C      0.522433333333     0.892100000000     0.118500000000     0          
C1       C      0.477566666667     0.774566666667     0.368500000000     0          
C1       C      0.644233333333     0.725433333333     0.868500000000     0          
C1       C      0.355766666667     0.941233333333     0.618500000000     0          
C1       C      0.522433333333     0.892100000000     0.618500000000     0          
C1       C      0.477566666667     0.774566666667     0.868500000000     0          
C1       C      0.977566666667     0.058766666667     0.368500000000     0          
C1       C      0.689100000000     0.274566666667     0.118500000000     0          
C1       C      0.855766666667     0.225433333333     0.118500000000     0          
C1       C      0.810900000000     0.107900000000     0.368500000000     0          
C1       C      0.977566666667     0.058766666667     0.868500000000     0          
C1       C      0.689100000000     0.274566666667     0.618500000000     0          
C1       C      0.855766666667     0.225433333333     0.618500000000     0          
C1       C      0.810900000000     0.107900000000     0.868500000000     0          
C1       C      0.977566666667     0.392100000000     0.368500000000     0          
C1       C      0.689100000000     0.607900000000     0.118500000000     0          
C1       C      0.855766666667     0.558766666667     0.118500000000     0          
C1       C      0.810900000000     0.441233333333     0.368500000000     0          
C1       C      0.977566666667     0.392100000000     0.868500000000     0          
C1       C      0.689100000000     0.607900000000     0.618500000000     0          
C1       C      0.855766666667     0.558766666667     0.618500000000     0          
C1       C      0.810900000000     0.441233333333     0.868500000000     0          
C1       C      0.977566666667     0.725433333333     0.368500000000     0          
C1       C      0.689100000000     0.941233333333     0.118500000000     0          
C1       C      0.855766666667     0.892100000000     0.118500000000     0          
C1       C      0.810900000000     0.774566666667     0.368500000000     0          
C1       C      0.977566666667     0.725433333333     0.868500000000     0          
C1       C      0.689100000000     0.941233333333     0.618500000000     0          
C1       C      0.855766666667     0.892100000000     0.618500000000     0          
C1       C      0.810900000000     0.774566666667     0.868500000000     0          
H1       H      0.329166666667     0.051666666667     0.383900000000     0          
H1       H      0.004166666667     0.281666666667     0.133900000000     0          
H1       H      0.170833333333     0.218333333333     0.133900000000     0          
H1       H      0.162500000000     0.115000000000     0.383900000000     0          
H1       H      0.329166666667     0.051666666667     0.883900000000     0          
H1       H      0.004166666667     0.281666666667     0.633900000000     0          
H1       H      0.170833333333     0.218333333333     0.633900000000     0          
H1       H      0.162500000000     0.115000000000     0.883900000000     0          
H1       H      0.329166666667     0.385000000000     0.383900000000     0          
H1       H      0.004166666667     0.615000000000     0.133900000000     0          
H1       H      0.170833333333     0.551666666667     0.133900000000     0          
H1       H      0.162500000000     0.448333333333     0.383900000000     0          
H1       H      0.329166666667     0.385000000000     0.883900000000     0          
H1       H      0.004166666667     0.615000000000     0.633900000000     0          
H1       H      0.170833333333     0.551666666667     0.633900000000     0          
H1       H      0.162500000000     0.448333333333     0.883900000000     0          
H1       H      0.329166666667     0.718333333333     0.383900000000     0          
H1       H      0.004166666667     0.948333333333     0.133900000000     0          
H1       H      0.170833333333     0.885000000000     0.133900000000     0          
H1       H      0.162500000000     0.781666666667     0.383900000000     0          
H1       H      0.329166666667     0.718333333333     0.883900000000     0          
H1       H      0.004166666667     0.948333333333     0.633900000000     0          
H1       H      0.170833333333     0.885000000000     0.633900000000     0          
H1       H      0.162500000000     0.781666666667     0.883900000000     0          
H1       H      0.662500000000     0.051666666667     0.383900000000     0          
H1       H      0.337500000000     0.281666666667     0.133900000000     0          
H1       H      0.504166666667     0.218333333333     0.133900000000     0          
H1       H      0.495833333333     0.115000000000     0.383900000000     0          
H1       H      0.662500000000     0.051666666667     0.883900000000     0          
H1       H      0.337500000000     0.281666666667     0.633900000000     0          
H1       H      0.504166666667     0.218333333333     0.633900000000     0          
H1       H      0.495833333333     0.115000000000     0.883900000000     0          
H1       H      0.662500000000     0.385000000000     0.383900000000     0          
H1       H      0.337500000000     0.615000000000     0.133900000000     0          
H1       H      0.504166666667     0.551666666667     0.133900000000     0          
H1       H      0.495833333333     0.448333333333     0.383900000000     0          
H1       H      0.662500000000     0.385000000000     0.883900000000     0          
H1       H      0.337500000000     0.615000000000     0.633900000000     0          
H1       H      0.504166666667     0.551666666667     0.633900000000     0          
H1       H      0.495833333333     0.448333333333     0.883900000000     0          
H1       H      0.662500000000     0.718333333333     0.383900000000     0          
H1       H      0.337500000000     0.948333333333     0.133900000000     0          
H1       H      0.504166666667     0.885000000000     0.133900000000     0          
H1       H      0.495833333333     0.781666666667     0.383900000000     0          
H1       H      0.662500000000     0.718333333333     0.883900000000     0          
H1       H      0.337500000000     0.948333333333     0.633900000000     0          
H1       H      0.504166666667     0.885000000000     0.633900000000     0          
H1       H      0.495833333333     0.781666666667     0.883900000000     0          
H1       H      0.995833333333     0.051666666667     0.383900000000     0          
H1       H      0.670833333333     0.281666666667     0.133900000000     0          
H1       H      0.837500000000     0.218333333333     0.133900000000     0          
H1       H      0.829166666667     0.115000000000     0.383900000000     0          
H1       H      0.995833333333     0.051666666667     0.883900000000     0          
H1       H      0.670833333333     0.281666666667     0.633900000000     0          
H1       H      0.837500000000     0.218333333333     0.633900000000     0          
H1       H      0.829166666667     0.115000000000     0.883900000000     0          
H1       H      0.995833333333     0.385000000000     0.383900000000     0          
H1       H      0.670833333333     0.615000000000     0.133900000000     0          
H1       H      0.837500000000     0.551666666667     0.133900000000     0          
H1       H      0.829166666667     0.448333333333     0.383900000000     0          
H1       H      0.995833333333     0.385000000000     0.883900000000     0          
H1       H      0.670833333333     0.615000000000     0.633900000000     0          
H1       H      0.837500000000     0.551666666667     0.633900000000     0          
H1       H      0.829166666667     0.448333333333     0.883900000000     0          
H1       H      0.995833333333     0.718333333333     0.383900000000     0          
H1       H      0.670833333333     0.948333333333     0.133900000000     0          
H1       H      0.837500000000     0.885000000000     0.133900000000     0          
H1       H      0.829166666667     0.781666666667     0.383900000000     0          
H1       H      0.995833333333     0.718333333333     0.883900000000     0          
H1       H      0.670833333333     0.948333333333     0.633900000000     0          
H1       H      0.837500000000     0.885000000000     0.633900000000     0          
H1       H      0.829166666667     0.781666666667     0.883900000000     0          
N2       N      0.306400000000     0.035533333333     0.341500000000     0          
N2       N      0.026933333333     0.297800000000     0.091500000000     0          
N2       N      0.193600000000     0.202200000000     0.091500000000     0          
N2       N      0.139733333333     0.131133333333     0.341500000000     0          
N2       N      0.306400000000     0.035533333333     0.841500000000     0          
N2       N      0.026933333333     0.297800000000     0.591500000000     0          
N2       N      0.193600000000     0.202200000000     0.591500000000     0          
N2       N      0.139733333333     0.131133333333     0.841500000000     0          
N2       N      0.306400000000     0.368866666667     0.341500000000     0          
N2       N      0.026933333333     0.631133333333     0.091500000000     0          
N2       N      0.193600000000     0.535533333333     0.091500000000     0          
N2       N      0.139733333333     0.464466666667     0.341500000000     0          
N2       N      0.306400000000     0.368866666667     0.841500000000     0          
N2       N      0.026933333333     0.631133333333     0.591500000000     0          
N2       N      0.193600000000     0.535533333333     0.591500000000     0          
N2       N      0.139733333333     0.464466666667     0.841500000000     0          
N2       N      0.306400000000     0.702200000000     0.341500000000     0          
N2       N      0.026933333333     0.964466666667     0.091500000000     0          
N2       N      0.193600000000     0.868866666667     0.091500000000     0          
N2       N      0.139733333333     0.797800000000     0.341500000000     0          
N2       N      0.306400000000     0.702200000000     0.841500000000     0          
N2       N      0.026933333333     0.964466666667     0.591500000000     0          
N2       N      0.193600000000     0.868866666667     0.591500000000     0          
N2       N      0.139733333333     0.797800000000     0.841500000000     0          
N2       N      0.639733333333     0.035533333333     0.341500000000     0          
N2       N      0.360266666667     0.297800000000     0.091500000000     0          
N2       N      0.526933333333     0.202200000000     0.091500000000     0          
N2       N      0.473066666667     0.131133333333     0.341500000000     0          
N2       N      0.639733333333     0.035533333333     0.841500000000     0          
N2       N      0.360266666667     0.297800000000     0.591500000000     0          
N2       N      0.526933333333     0.202200000000     0.591500000000     0          
N2       N      0.473066666667     0.131133333333     0.841500000000     0          
N2       N      0.639733333333     0.368866666667     0.341500000000     0          
N2       N      0.360266666667     0.631133333333     0.091500000000     0          
N2       N      0.526933333333     0.535533333333     0.091500000000     0          
N2       N      0.473066666667     0.464466666667     0.341500000000     0          
N2       N      0.639733333333     0.368866666667     0.841500000000     0          
N2       N      0.360266666667     0.631133333333     0.591500000000     0          
N2       N      0.526933333333     0.535533333333     0.591500000000     0          
N2       N      0.473066666667     0.464466666667     0.841500000000     0          
N2       N      0.639733333333     0.702200000000     0.341500000000     0          
N2       N      0.360266666667     0.964466666667     0.091500000000     0          
N2       N      0.526933333333     0.868866666667     0.091500000000     0          
N2       N      0.473066666667     0.797800000000     0.341500000000     0          
N2       N      0.639733333333     0.702200000000     0.841500000000     0          
N2       N      0.360266666667     0.964466666667     0.591500000000     0          
N2       N      0.526933333333     0.868866666667     0.591500000000     0          
N2       N      0.473066666667     0.797800000000     0.841500000000     0          
N2       N      0.973066666667     0.035533333333     0.341500000000     0          
N2       N      0.693600000000     0.297800000000     0.091500000000     0          
N2       N      0.860266666667     0.202200000000     0.091500000000     0          
N2       N      0.806400000000     0.131133333333     0.341500000000     0          
N2       N      0.973066666667     0.035533333333     0.841500000000     0          
N2       N      0.693600000000     0.297800000000     0.591500000000     0          
N2       N      0.860266666667     0.202200000000     0.591500000000     0          
N2       N      0.806400000000     0.131133333333     0.841500000000     0          
N2       N      0.973066666667     0.368866666667     0.341500000000     0          
N2       N      0.693600000000     0.631133333333     0.091500000000     0          
N2       N      0.860266666667     0.535533333333     0.091500000000     0          
N2       N      0.806400000000     0.464466666667     0.341500000000     0          
N2       N      0.973066666667     0.368866666667     0.841500000000     0          
N2       N      0.693600000000     0.631133333333     0.591500000000     0          
N2       N      0.860266666667     0.535533333333     0.591500000000     0          
N2       N      0.806400000000     0.464466666667     0.841500000000     0          
N2       N      0.973066666667     0.702200000000     0.341500000000     0          
N2       N      0.693600000000     0.964466666667     0.091500000000     0          
N2       N      0.860266666667     0.868866666667     0.091500000000     0          
N2       N      0.806400000000     0.797800000000     0.341500000000     0          
N2       N      0.973066666667     0.702200000000     0.841500000000     0          
N2       N      0.693600000000     0.964466666667     0.591500000000     0          
N2       N      0.860266666667     0.868866666667     0.591500000000     0          
N2       N      0.806400000000     0.797800000000     0.841500000000     0          
C2       C      0.280800000000     0.045833333333     0.318650000000     0          
C2       C      0.052533333333     0.287500000000     0.068650000000     0          
C2       C      0.219200000000     0.212500000000     0.068650000000     0          
C2       C      0.114133333333     0.120833333333     0.318650000000     0          
C2       C      0.280800000000     0.045833333333     0.818650000000     0          
C2       C      0.052533333333     0.287500000000     0.568650000000     0          
C2       C      0.219200000000     0.212500000000     0.568650000000     0          
C2       C      0.114133333333     0.120833333333     0.818650000000     0          
C2       C      0.280800000000     0.379166666667     0.318650000000     0          
C2       C      0.052533333333     0.620833333333     0.068650000000     0          
C2       C      0.219200000000     0.545833333333     0.068650000000     0          
C2       C      0.114133333333     0.454166666667     0.318650000000     0          
C2       C      0.280800000000     0.379166666667     0.818650000000     0          
C2       C      0.052533333333     0.620833333333     0.568650000000     0          
C2       C      0.219200000000     0.545833333333     0.568650000000     0          
C2       C      0.114133333333     0.454166666667     0.818650000000     0          
C2       C      0.280800000000     0.712500000000     0.318650000000     0          
C2       C      0.052533333333     0.954166666667     0.068650000000     0          
C2       C      0.219200000000     0.879166666667     0.068650000000     0          
C2       C      0.114133333333     0.787500000000     0.318650000000     0          
C2       C      0.280800000000     0.712500000000     0.818650000000     0          
C2       C      0.052533333333     0.954166666667     0.568650000000     0          
C2       C      0.219200000000     0.879166666667     0.568650000000     0          
C2       C      0.114133333333     0.787500000000     0.818650000000     0          
C2       C      0.614133333333     0.045833333333     0.318650000000     0          
C2       C      0.385866666667     0.287500000000     0.068650000000     0          
C2       C      0.552533333333     0.212500000000     0.068650000000     0          
C2       C      0.447466666667     0.120833333333     0.318650000000     0          
C2       C      0.614133333333     0.045833333333     0.818650000000     0          
C2       C      0.385866666667     0.287500000000     0.568650000000     0          
C2       C      0.552533333333     0.212500000000     0.568650000000     0          
C2       C      0.447466666667     0.120833333333     0.818650000000     0          
C2       C      0.614133333333     0.379166666667     0.318650000000     0          
C2       C      0.385866666667     0.620833333333     0.068650000000     0          
C2       C      0.552533333333     0.545833333333     0.068650000000     0          
C2       C      0.447466666667     0.454166666667     0.318650000000     0          
C2       C      0.614133333333     0.379166666667     0.818650000000     0          
C2       C      0.385866666667     0.620833333333     0.568650000000     0          
C2       C      0.552533333333     0.545833333333     0.568650000000     0          
C2       C      0.447466666667     0.454166666667     0.818650000000     0          
C2       C      0.614133333333     0.712500000000     0.318650000000     0          
C2       C      0.385866666667     0.954166666667     0.068650000000     0          
C2       C      0.552533333333     0.879166666667     0.068650000000     0          
C2       C      0.447466666667     0.787500000000     0.318650000000     0          
C2       C      0.614133333333     0.712500000000     0.818650000000     0          
C2       C      0.385866666667     0.954166666667     0.568650000000     0          
C2       C      0.552533333333     0.879166666667     0.568650000000     0          
C2       C      0.447466666667     0.787500000000     0.818650000000     0          
C2       C      0.947466666667     0.045833333333     0.318650000000     0          
C2       C      0.719200000000     0.287500000000     0.068650000000     0          
C2       C      0.885866666667     0.212500000000     0.068650000000     0          
C2       C      0.780800000000     0.120833333333     0.318650000000     0          
C2       C      0.947466666667     0.045833333333     0.818650000000     0          
C2       C      0.719200000000     0.287500000000     0.568650000000     0          
C2       C      0.885866666667     0.212500000000     0.568650000000     0          
C2       C      0.780800000000     0.120833333333     0.818650000000     0          
C2       C      0.947466666667     0.379166666667     0.318650000000     0          
C2       C      0.719200000000     0.620833333333     0.068650000000     0          
C2       C      0.885866666667     0.545833333333     0.068650000000     0          
C2       C      0.780800000000     0.454166666667     0.318650000000     0          
C2       C      0.947466666667     0.379166666667     0.818650000000     0          
C2       C      0.719200000000     0.620833333333     0.568650000000     0          
C2       C      0.885866666667     0.545833333333     0.568650000000     0          
C2       C      0.780800000000     0.454166666667     0.818650000000     0          
C2       C      0.947466666667     0.712500000000     0.318650000000     0          
C2       C      0.719200000000     0.954166666667     0.068650000000     0          
C2       C      0.885866666667     0.879166666667     0.068650000000     0          
C2       C      0.780800000000     0.787500000000     0.318650000000     0          
C2       C      0.947466666667     0.712500000000     0.818650000000     0          
C2       C      0.719200000000     0.954166666667     0.568650000000     0          
C2       C      0.885866666667     0.879166666667     0.568650000000     0          
C2       C      0.780800000000     0.787500000000     0.818650000000     0          
C3       C      0.260666666667     0.080433333333     0.322550000000     0          
C3       C      0.072666666667     0.252900000000     0.072550000000     0          
C3       C      0.239333333333     0.247100000000     0.072550000000     0          
C3       C      0.094000000000     0.086233333333     0.322550000000     0          
C3       C      0.260666666667     0.080433333333     0.822550000000     0          
C3       C      0.072666666667     0.252900000000     0.572550000000     0          
C3       C      0.239333333333     0.247100000000     0.572550000000     0          
C3       C      0.094000000000     0.086233333333     0.822550000000     0          
C3       C      0.260666666667     0.413766666667     0.322550000000     0          
C3       C      0.072666666667     0.586233333333     0.072550000000     0          
C3       C      0.239333333333     0.580433333333     0.072550000000     0          
C3       C      0.094000000000     0.419566666667     0.322550000000     0          
C3       C      0.260666666667     0.413766666667     0.822550000000     0          
C3       C      0.072666666667     0.586233333333     0.572550000000     0          
C3       C      0.239333333333     0.580433333333     0.572550000000     0          
C3       C      0.094000000000     0.419566666667     0.822550000000     0          
C3       C      0.260666666667     0.747100000000     0.322550000000     0          
C3       C      0.072666666667     0.919566666667     0.072550000000     0          
C3       C      0.239333333333     0.913766666667     0.072550000000     0          
C3       C      0.094000000000     0.752900000000     0.322550000000     0          
C3       C      0.260666666667     0.747100000000     0.822550000000     0          
C3       C      0.072666666667     0.919566666667     0.572550000000     0          
C3       C      0.239333333333     0.913766666667     0.572550000000     0          
C3       C      0.094000000000     0.752900000000     0.822550000000     0          
C3       C      0.594000000000     0.080433333333     0.322550000000     0          
C3       C      0.406000000000     0.252900000000     0.072550000000     0          
C3       C      0.572666666667     0.247100000000     0.072550000000     0          
C3       C      0.427333333333     0.086233333333     0.322550000000     0          
C3       C      0.594000000000     0.080433333333     0.822550000000     0          
C3       C      0.406000000000     0.252900000000     0.572550000000     0          
C3       C      0.572666666667     0.247100000000     0.572550000000     0          
C3       C      0.427333333333     0.086233333333     0.822550000000     0          
C3       C      0.594000000000     0.413766666667     0.322550000000     0          
C3       C      0.406000000000     0.586233333333     0.072550000000     0          
C3       C      0.572666666667     0.580433333333     0.072550000000     0          
C3       C      0.427333333333     0.419566666667     0.322550000000     0          
C3       C      0.594000000000     0.413766666667     0.822550000000     0          
C3       C      0.406000000000     0.586233333333     0.572550000000     0          
C3       C      0.572666666667     0.580433333333     0.572550000000     0          
C3       C      0.427333333333     0.419566666667     0.822550000000     0          
C3       C      0.594000000000     0.747100000000     0.322550000000     0          
C3       C      0.406000000000     0.919566666667     0.072550000000     0          
C3       C      0.572666666667     0.913766666667     0.072550000000     0          
C3       C      0.427333333333     0.752900000000     0.322550000000     0          
C3       C      0.594000000000     0.747100000000     0.822550000000     0          
C3       C      0.406000000000     0.919566666667     0.572550000000     0          
C3       C      0.572666666667     0.913766666667     0.572550000000     0          
C3       C      0.427333333333     0.752900000000     0.822550000000     0          
C3       C      0.927333333333     0.080433333333     0.322550000000     0          
C3       C      0.739333333333     0.252900000000     0.072550000000     0          
C3       C      0.906000000000     0.247100000000     0.072550000000     0          
C3       C      0.760666666667     0.086233333333     0.322550000000     0          
C3       C      0.927333333333     0.080433333333     0.822550000000     0          
C3       C      0.739333333333     0.252900000000     0.572550000000     0          
C3       C      0.906000000000     0.247100000000     0.572550000000     0          
C3       C      0.760666666667     0.086233333333     0.822550000000     0          
C3       C      0.927333333333     0.413766666667     0.322550000000     0          
C3       C      0.739333333333     0.586233333333     0.072550000000     0          
C3       C      0.906000000000     0.580433333333     0.072550000000     0          
C3       C      0.760666666667     0.419566666667     0.322550000000     0          
C3       C      0.927333333333     0.413766666667     0.822550000000     0          
C3       C      0.739333333333     0.586233333333     0.572550000000     0          
C3       C      0.906000000000     0.580433333333     0.572550000000     0          
C3       C      0.760666666667     0.419566666667     0.822550000000     0          
C3       C      0.927333333333     0.747100000000     0.322550000000     0          
C3       C      0.739333333333     0.919566666667     0.072550000000     0          
C3       C      0.906000000000     0.913766666667     0.072550000000     0          
C3       C      0.760666666667     0.752900000000     0.322550000000     0          
C3       C      0.927333333333     0.747100000000     0.822550000000     0          
C3       C      0.739333333333     0.919566666667     0.572550000000     0          
C3       C      0.906000000000     0.913766666667     0.572550000000     0          
C3       C      0.760666666667     0.752900000000     0.822550000000     0          
H2       H      0.244066666667     0.088766666667     0.306000000000     0          
H2       H      0.089266666667     0.244566666667     0.056000000000     0          
H2       H      0.255933333333     0.255433333333     0.056000000000     0          
H2       H      0.077400000000     0.077900000000     0.306000000000     0          
H2       H      0.244066666667     0.088766666667     0.806000000000     0          
H2       H      0.089266666667     0.244566666667     0.556000000000     0          
H2       H      0.255933333333     0.255433333333     0.556000000000     0          
H2       H      0.077400000000     0.077900000000     0.806000000000     0          
H2       H      0.244066666667     0.422100000000     0.306000000000     0          
H2       H      0.089266666667     0.577900000000     0.056000000000     0          
H2       H      0.255933333333     0.588766666667     0.056000000000     0          
H2       H      0.077400000000     0.411233333333     0.306000000000     0          
H2       H      0.244066666667     0.422100000000     0.806000000000     0          
H2       H      0.089266666667     0.577900000000     0.556000000000     0          
H2       H      0.255933333333     0.588766666667     0.556000000000     0          
H2       H      0.077400000000     0.411233333333     0.806000000000     0          
H2       H      0.244066666667     0.755433333333     0.306000000000     0          
H2       H      0.089266666667     0.911233333333     0.056000000000     0          
H2       H      0.255933333333     0.922100000000     0.056000000000     0          
H2       H      0.077400000000     0.744566666667     0.306000000000     0          
H2       H      0.244066666667     0.755433333333     0.806000000000     0          
H2       H      0.089266666667     0.911233333333     0.556000000000     0          
H2       H      0.255933333333     0.922100000000     0.556000000000     0          
H2       H      0.077400000000     0.744566666667     0.806000000000     0          
H2       H      0.577400000000     0.088766666667     0.306000000000     0          
H2       H      0.422600000000     0.244566666667     0.056000000000     0          
H2       H      0.589266666667     0.255433333333     0.056000000000     0          
H2       H      0.410733333333     0.077900000000     0.306000000000     0          
H2       H      0.577400000000     0.088766666667     0.806000000000     0          
H2       H      0.422600000000     0.244566666667     0.556000000000     0          
H2       H      0.589266666667     0.255433333333     0.556000000000     0          
H2       H      0.410733333333     0.077900000000     0.806000000000     0          
H2       H      0.577400000000     0.422100000000     0.306000000000     0          
H2       H      0.422600000000     0.577900000000     0.056000000000     0          
H2       H      0.589266666667     0.588766666667     0.056000000000     0          
H2       H      0.410733333333     0.411233333333     0.306000000000     0          
H2       H      0.577400000000     0.422100000000     0.806000000000     0          
H2       H      0.422600000000     0.577900000000     0.556000000000     0          
H2       H      0.589266666667     0.588766666667     0.556000000000     0          
H2       H      0.410733333333     0.411233333333     0.806000000000     0          
H2       H      0.577400000000     0.755433333333     0.306000000000     0          
H2       H      0.422600000000     0.911233333333     0.056000000000     0          
H2       H      0.589266666667     0.922100000000     0.056000000000     0          
H2       H      0.410733333333     0.744566666667     0.306000000000     0          
H2       H      0.577400000000     0.755433333333     0.806000000000     0          
H2       H      0.422600000000     0.911233333333     0.556000000000     0          
H2       H      0.589266666667     0.922100000000     0.556000000000     0          
H2       H      0.410733333333     0.744566666667     0.806000000000     0          
H2       H      0.910733333333     0.088766666667     0.306000000000     0          
H2       H      0.755933333333     0.244566666667     0.056000000000     0          
H2       H      0.922600000000     0.255433333333     0.056000000000     0          
H2       H      0.744066666667     0.077900000000     0.306000000000     0          
H2       H      0.910733333333     0.088766666667     0.806000000000     0          
H2       H      0.755933333333     0.244566666667     0.556000000000     0          
H2       H      0.922600000000     0.255433333333     0.556000000000     0          
H2       H      0.744066666667     0.077900000000     0.806000000000     0          
H2       H      0.910733333333     0.422100000000     0.306000000000     0          
H2       H      0.755933333333     0.577900000000     0.056000000000     0          
H2       H      0.922600000000     0.588766666667     0.056000000000     0          
H2       H      0.744066666667     0.411233333333     0.306000000000     0          
H2       H      0.910733333333     0.422100000000     0.806000000000     0          
H2       H      0.755933333333     0.577900000000     0.556000000000     0          
H2       H      0.922600000000     0.588766666667     0.556000000000     0          
H2       H      0.744066666667     0.411233333333     0.806000000000     0          
H2       H      0.910733333333     0.755433333333     0.306000000000     0          
H2       H      0.755933333333     0.911233333333     0.056000000000     0          
H2       H      0.922600000000     0.922100000000     0.056000000000     0          
H2       H      0.744066666667     0.744566666667     0.306000000000     0          
H2       H      0.910733333333     0.755433333333     0.806000000000     0          
H2       H      0.755933333333     0.911233333333     0.556000000000     0          
H2       H      0.922600000000     0.922100000000     0.556000000000     0          
H2       H      0.744066666667     0.744566666667     0.806000000000     0          
C4       C      0.265933333333     0.102433333333     0.351850000000     0          
C4       C      0.067400000000     0.230900000000     0.101850000000     0          
C4       C      0.234066666667     0.269100000000     0.101850000000     0          
C4       C      0.099266666667     0.064233333333     0.351850000000     0          
C4       C      0.265933333333     0.102433333333     0.851850000000     0          
C4       C      0.067400000000     0.230900000000     0.601850000000     0          
C4       C      0.234066666667     0.269100000000     0.601850000000     0          
C4       C      0.099266666667     0.064233333333     0.851850000000     0          
C4       C      0.265933333333     0.435766666667     0.351850000000     0          
C4       C      0.067400000000     0.564233333333     0.101850000000     0          
C4       C      0.234066666667     0.602433333333     0.101850000000     0          
C4       C      0.099266666667     0.397566666667     0.351850000000     0          
C4       C      0.265933333333     0.435766666667     0.851850000000     0          
C4       C      0.067400000000     0.564233333333     0.601850000000     0          
C4       C      0.234066666667     0.602433333333     0.601850000000     0          
C4       C      0.099266666667     0.397566666667     0.851850000000     0          
C4       C      0.265933333333     0.769100000000     0.351850000000     0          
C4       C      0.067400000000     0.897566666667     0.101850000000     0          
C4       C      0.234066666667     0.935766666667     0.101850000000     0          
C4       C      0.099266666667     0.730900000000     0.351850000000     0          
C4       C      0.265933333333     0.769100000000     0.851850000000     0          
C4       C      0.067400000000     0.897566666667     0.601850000000     0          
C4       C      0.234066666667     0.935766666667     0.601850000000     0          
C4       C      0.099266666667     0.730900000000     0.851850000000     0          
C4       C      0.599266666667     0.102433333333     0.351850000000     0          
C4       C      0.400733333333     0.230900000000     0.101850000000     0          
C4       C      0.567400000000     0.269100000000     0.101850000000     0          
C4       C      0.432600000000     0.064233333333     0.351850000000     0          
C4       C      0.599266666667     0.102433333333     0.851850000000     0          
C4       C      0.400733333333     0.230900000000     0.601850000000     0          
C4       C      0.567400000000     0.269100000000     0.601850000000     0          
C4       C      0.432600000000     0.064233333333     0.851850000000     0          
C4       C      0.599266666667     0.435766666667     0.351850000000     0          
C4       C      0.400733333333     0.564233333333     0.101850000000     0          
C4       C      0.567400000000     0.602433333333     0.101850000000     0          
C4       C      0.432600000000     0.397566666667     0.351850000000     0          
C4       C      0.599266666667     0.435766666667     0.851850000000     0          
C4       C      0.400733333333     0.564233333333     0.601850000000     0          
C4       C      0.567400000000     0.602433333333     0.601850000000     0          
C4       C      0.432600000000     0.397566666667     0.851850000000     0          
C4       C      0.599266666667     0.769100000000     0.351850000000     0          
C4       C      0.400733333333     0.897566666667     0.101850000000     0          
C4       C      0.567400000000     0.935766666667     0.101850000000     0          
C4       C      0.432600000000     0.730900000000     0.351850000000     0          
C4       C      0.599266666667     0.769100000000     0.851850000000     0          
C4       C      0.400733333333     0.897566666667     0.601850000000     0          
C4       C      0.567400000000     0.935766666667     0.601850000000     0          
C4       C      0.432600000000     0.730900000000     0.851850000000     0          
C4       C      0.932600000000     0.102433333333     0.351850000000     0          
C4       C      0.734066666667     0.230900000000     0.101850000000     0          
C4       C      0.900733333333     0.269100000000     0.101850000000     0          
C4       C      0.765933333333     0.064233333333     0.351850000000     0          
C4       C      0.932600000000     0.102433333333     0.851850000000     0          
C4       C      0.734066666667     0.230900000000     0.601850000000     0          
C4       C      0.900733333333     0.269100000000     0.601850000000     0          
C4       C      0.765933333333     0.064233333333     0.851850000000     0          
C4       C      0.932600000000     0.435766666667     0.351850000000     0          
C4       C      0.734066666667     0.564233333333     0.101850000000     0          
C4       C      0.900733333333     0.602433333333     0.101850000000     0          
C4       C      0.765933333333     0.397566666667     0.351850000000     0          
C4       C      0.932600000000     0.435766666667     0.851850000000     0          
C4       C      0.734066666667     0.564233333333     0.601850000000     0          
C4       C      0.900733333333     0.602433333333     0.601850000000     0          
C4       C      0.765933333333     0.397566666667     0.851850000000     0          
C4       C      0.932600000000     0.769100000000     0.351850000000     0          
C4       C      0.734066666667     0.897566666667     0.101850000000     0          
C4       C      0.900733333333     0.935766666667     0.101850000000     0          
C4       C      0.765933333333     0.730900000000     0.351850000000     0          
C4       C      0.932600000000     0.769100000000     0.851850000000     0          
C4       C      0.734066666667     0.897566666667     0.601850000000     0          
C4       C      0.900733333333     0.935766666667     0.601850000000     0          
C4       C      0.765933333333     0.730900000000     0.851850000000     0          
C5       C      0.241400000000     0.137833333333     0.361250000000     0          
C5       C      0.091933333333     0.195500000000     0.111250000000     0          
C5       C      0.258600000000     0.304500000000     0.111250000000     0          
C5       C      0.074733333333     0.028833333333     0.361250000000     0          
C5       C      0.241400000000     0.137833333333     0.861250000000     0          
C5       C      0.091933333333     0.195500000000     0.611250000000     0          
C5       C      0.258600000000     0.304500000000     0.611250000000     0          
C5       C      0.074733333333     0.028833333333     0.861250000000     0          
C5       C      0.241400000000     0.471166666667     0.361250000000     0          
C5       C      0.091933333333     0.528833333333     0.111250000000     0          
C5       C      0.258600000000     0.637833333333     0.111250000000     0          
C5       C      0.074733333333     0.362166666667     0.361250000000     0          
C5       C      0.241400000000     0.471166666667     0.861250000000     0          
C5       C      0.091933333333     0.528833333333     0.611250000000     0          
C5       C      0.258600000000     0.637833333333     0.611250000000     0          
C5       C      0.074733333333     0.362166666667     0.861250000000     0          
C5       C      0.241400000000     0.804500000000     0.361250000000     0          
C5       C      0.091933333333     0.862166666667     0.111250000000     0          
C5       C      0.258600000000     0.971166666667     0.111250000000     0          
C5       C      0.074733333333     0.695500000000     0.361250000000     0          
C5       C      0.241400000000     0.804500000000     0.861250000000     0          
C5       C      0.091933333333     0.862166666667     0.611250000000     0          
C5       C      0.258600000000     0.971166666667     0.611250000000     0          
C5       C      0.074733333333     0.695500000000     0.861250000000     0          
C5       C      0.574733333333     0.137833333333     0.361250000000     0          
C5       C      0.425266666667     0.195500000000     0.111250000000     0          
C5       C      0.591933333333     0.304500000000     0.111250000000     0          
C5       C      0.408066666667     0.028833333333     0.361250000000     0          
C5       C      0.574733333333     0.137833333333     0.861250000000     0          
C5       C      0.425266666667     0.195500000000     0.611250000000     0          
C5       C      0.591933333333     0.304500000000     0.611250000000     0          
C5       C      0.408066666667     0.028833333333     0.861250000000     0          
C5       C      0.574733333333     0.471166666667     0.361250000000     0          
C5       C      0.425266666667     0.528833333333     0.111250000000     0          
C5       C      0.591933333333     0.637833333333     0.111250000000     0          
C5       C      0.408066666667     0.362166666667     0.361250000000     0          
C5       C      0.574733333333     0.471166666667     0.861250000000     0          
C5       C      0.425266666667     0.528833333333     0.611250000000     0          
C5       C      0.591933333333     0.637833333333     0.611250000000     0          
C5       C      0.408066666667     0.362166666667     0.861250000000     0          
C5       C      0.574733333333     0.804500000000     0.361250000000     0          
C5       C      0.425266666667     0.862166666667     0.111250000000     0          
C5       C      0.591933333333     0.971166666667     0.111250000000     0          
C5       C      0.408066666667     0.695500000000     0.361250000000     0          
C5       C      0.574733333333     0.804500000000     0.861250000000     0          
C5       C      0.425266666667     0.862166666667     0.611250000000     0          
C5       C      0.591933333333     0.971166666667     0.611250000000     0          
C5       C      0.408066666667     0.695500000000     0.861250000000     0          
C5       C      0.908066666667     0.137833333333     0.361250000000     0          
C5       C      0.758600000000     0.195500000000     0.111250000000     0          
C5       C      0.925266666667     0.304500000000     0.111250000000     0          
C5       C      0.741400000000     0.028833333333     0.361250000000     0          
C5       C      0.908066666667     0.137833333333     0.861250000000     0          
C5       C      0.758600000000     0.195500000000     0.611250000000     0          
C5       C      0.925266666667     0.304500000000     0.611250000000     0          
C5       C      0.741400000000     0.028833333333     0.861250000000     0          
C5       C      0.908066666667     0.471166666667     0.361250000000     0          
C5       C      0.758600000000     0.528833333333     0.111250000000     0          
C5       C      0.925266666667     0.637833333333     0.111250000000     0          
C5       C      0.741400000000     0.362166666667     0.361250000000     0          
C5       C      0.908066666667     0.471166666667     0.861250000000     0          
C5       C      0.758600000000     0.528833333333     0.611250000000     0          
C5       C      0.925266666667     0.637833333333     0.611250000000     0          
C5       C      0.741400000000     0.362166666667     0.861250000000     0          
C5       C      0.908066666667     0.804500000000     0.361250000000     0          
C5       C      0.758600000000     0.862166666667     0.111250000000     0          
C5       C      0.925266666667     0.971166666667     0.111250000000     0          
C5       C      0.741400000000     0.695500000000     0.361250000000     0          
C5       C      0.908066666667     0.804500000000     0.861250000000     0          
C5       C      0.758600000000     0.862166666667     0.611250000000     0          
C5       C      0.925266666667     0.971166666667     0.611250000000     0          
C5       C      0.741400000000     0.695500000000     0.861250000000     0          
O1       O      0.245366666667     0.152300000000     0.390500000000     0          
O1       O      0.087966666667     0.181033333333     0.140500000000     0          
O1       O      0.254633333333     0.318966666667     0.140500000000     0          
O1       O      0.078700000000     0.014366666667     0.390500000000     0          
O1       O      0.245366666667     0.152300000000     0.890500000000     0          
O1       O      0.087966666667     0.181033333333     0.640500000000     0          
O1       O      0.254633333333     0.318966666667     0.640500000000     0          
O1       O      0.078700000000     0.014366666667     0.890500000000     0          
O1       O      0.245366666667     0.485633333333     0.390500000000     0          
O1       O      0.087966666667     0.514366666667     0.140500000000     0          
O1       O      0.254633333333     0.652300000000     0.140500000000     0          
O1       O      0.078700000000     0.347700000000     0.390500000000     0          
O1       O      0.245366666667     0.485633333333     0.890500000000     0          
O1       O      0.087966666667     0.514366666667     0.640500000000     0          
O1       O      0.254633333333     0.652300000000     0.640500000000     0          
O1       O      0.078700000000     0.347700000000     0.890500000000     0          
O1       O      0.245366666667     0.818966666667     0.390500000000     0          
O1       O      0.087966666667     0.847700000000     0.140500000000     0          
O1       O      0.254633333333     0.985633333333     0.140500000000     0          
O1       O      0.078700000000     0.681033333333     0.390500000000     0          
O1       O      0.245366666667     0.818966666667     0.890500000000     0          
O1       O      0.087966666667     0.847700000000     0.640500000000     0          
O1       O      0.254633333333     0.985633333333     0.640500000000     0          
O1       O      0.078700000000     0.681033333333     0.890500000000     0          
O1       O      0.578700000000     0.152300000000     0.390500000000     0          
O1       O      0.421300000000     0.181033333333     0.140500000000     0          
O1       O      0.587966666667     0.318966666667     0.140500000000     0          
O1       O      0.412033333333     0.014366666667     0.390500000000     0          
O1       O      0.578700000000     0.152300000000     0.890500000000     0          
O1       O      0.421300000000     0.181033333333     0.640500000000     0          
O1       O      0.587966666667     0.318966666667     0.640500000000     0          
O1       O      0.412033333333     0.014366666667     0.890500000000     0          
O1       O      0.578700000000     0.485633333333     0.390500000000     0          
O1       O      0.421300000000     0.514366666667     0.140500000000     0          
O1       O      0.587966666667     0.652300000000     0.140500000000     0          
O1       O      0.412033333333     0.347700000000     0.390500000000     0          
O1       O      0.578700000000     0.485633333333     0.890500000000     0          
O1       O      0.421300000000     0.514366666667     0.640500000000     0          
O1       O      0.587966666667     0.652300000000     0.640500000000     0          
O1       O      0.412033333333     0.347700000000     0.890500000000     0          
O1       O      0.578700000000     0.818966666667     0.390500000000     0          
O1       O      0.421300000000     0.847700000000     0.140500000000     0          
O1       O      0.587966666667     0.985633333333     0.140500000000     0          
O1       O      0.412033333333     0.681033333333     0.390500000000     0          
O1       O      0.578700000000     0.818966666667     0.890500000000     0          
O1       O      0.421300000000     0.847700000000     0.640500000000     0          
O1       O      0.587966666667     0.985633333333     0.640500000000     0          
O1       O      0.412033333333     0.681033333333     0.890500000000     0          
O1       O      0.912033333333     0.152300000000     0.390500000000     0          
O1       O      0.754633333333     0.181033333333     0.140500000000     0          
O1       O      0.921300000000     0.318966666667     0.140500000000     0          
O1       O      0.745366666667     0.014366666667     0.390500000000     0          
O1       O      0.912033333333     0.152300000000     0.890500000000     0          
O1       O      0.754633333333     0.181033333333     0.640500000000     0          
O1       O      0.921300000000     0.318966666667     0.640500000000     0          
O1       O      0.745366666667     0.014366666667     0.890500000000     0          
O1       O      0.912033333333     0.485633333333     0.390500000000     0          
O1       O      0.754633333333     0.514366666667     0.140500000000     0          
O1       O      0.921300000000     0.652300000000     0.140500000000     0          
O1       O      0.745366666667     0.347700000000     0.390500000000     0          
O1       O      0.912033333333     0.485633333333     0.890500000000     0          
O1       O      0.754633333333     0.514366666667     0.640500000000     0          
O1       O      0.921300000000     0.652300000000     0.640500000000     0          
O1       O      0.745366666667     0.347700000000     0.890500000000     0          
O1       O      0.912033333333     0.818966666667     0.390500000000     0          
O1       O      0.754633333333     0.847700000000     0.140500000000     0          
O1       O      0.921300000000     0.985633333333     0.140500000000     0          
O1       O      0.745366666667     0.681033333333     0.390500000000     0          
O1       O      0.912033333333     0.818966666667     0.890500000000     0          
O1       O      0.754633333333     0.847700000000     0.640500000000     0          
O1       O      0.921300000000     0.985633333333     0.640500000000     0          
O1       O      0.745366666667     0.681033333333     0.890500000000     0          
O2       O      0.218766666667     0.149000000000     0.339150000000     0          
O2       O      0.114566666667     0.184333333333     0.089150000000     0          
O2       O      0.218766666667     0.149000000000     0.839150000000     0          
O2       O      0.114566666667     0.184333333333     0.589150000000     0          
O2       O      0.218766666667     0.482333333333     0.339150000000     0          
O2       O      0.114566666667     0.517666666667     0.089150000000     0          
O2       O      0.218766666667     0.482333333333     0.839150000000     0          
O2       O      0.114566666667     0.517666666667     0.589150000000     0          
O2       O      0.218766666667     0.815666666667     0.339150000000     0          
O2       O      0.114566666667     0.851000000000     0.089150000000     0          
O2       O      0.218766666667     0.815666666667     0.839150000000     0          
O2       O      0.114566666667     0.851000000000     0.589150000000     0          
O2       O      0.552100000000     0.149000000000     0.339150000000     0          
O2       O      0.447900000000     0.184333333333     0.089150000000     0          
O2       O      0.552100000000     0.149000000000     0.839150000000     0          
O2       O      0.447900000000     0.184333333333     0.589150000000     0          
O2       O      0.552100000000     0.482333333333     0.339150000000     0          
O2       O      0.447900000000     0.517666666667     0.089150000000     0          
O2       O      0.552100000000     0.482333333333     0.839150000000     0          
O2       O      0.447900000000     0.517666666667     0.589150000000     0          
O2       O      0.552100000000     0.815666666667     0.339150000000     0          
O2       O      0.447900000000     0.851000000000     0.089150000000     0          
O2       O      0.552100000000     0.815666666667     0.839150000000     0          
O2       O      0.447900000000     0.851000000000     0.589150000000     0          
O2       O      0.885433333333     0.149000000000     0.339150000000     0          
O2       O      0.781233333333     0.184333333333     0.089150000000     0          
O2       O      0.885433333333     0.149000000000     0.839150000000     0          
O2       O      0.781233333333     0.184333333333     0.589150000000     0          
O2       O      0.885433333333     0.482333333333     0.339150000000     0          
O2       O      0.781233333333     0.517666666667     0.089150000000     0          
O2       O      0.885433333333     0.482333333333     0.839150000000     0          
O2       O      0.781233333333     0.517666666667     0.589150000000     0          
O2       O      0.885433333333     0.815666666667     0.339150000000     0          
O2       O      0.781233333333     0.851000000000     0.089150000000     0          
O2       O      0.885433333333     0.815666666667     0.839150000000     0          
O2       O      0.781233333333     0.851000000000     0.589150000000     0          
C6       C      0.274666666667     0.017566666667     0.288850000000     0          
C6       C      0.058666666667     0.315766666667     0.038850000000     0          
C6       C      0.225333333333     0.184233333333     0.038850000000     0          
C6       C      0.108000000000     0.149100000000     0.288850000000     0          
C6       C      0.274666666667     0.017566666667     0.788850000000     0          
C6       C      0.058666666667     0.315766666667     0.538850000000     0          
C6       C      0.225333333333     0.184233333333     0.538850000000     0          
C6       C      0.108000000000     0.149100000000     0.788850000000     0          
C6       C      0.274666666667     0.350900000000     0.288850000000     0          
C6       C      0.058666666667     0.649100000000     0.038850000000     0          
C6       C      0.225333333333     0.517566666667     0.038850000000     0          
C6       C      0.108000000000     0.482433333333     0.288850000000     0          
C6       C      0.274666666667     0.350900000000     0.788850000000     0          
C6       C      0.058666666667     0.649100000000     0.538850000000     0          
C6       C      0.225333333333     0.517566666667     0.538850000000     0          
C6       C      0.108000000000     0.482433333333     0.788850000000     0          
C6       C      0.274666666667     0.684233333333     0.288850000000     0          
C6       C      0.058666666667     0.982433333333     0.038850000000     0          
C6       C      0.225333333333     0.850900000000     0.038850000000     0          
C6       C      0.108000000000     0.815766666667     0.288850000000     0          
C6       C      0.274666666667     0.684233333333     0.788850000000     0          
C6       C      0.058666666667     0.982433333333     0.538850000000     0          
C6       C      0.225333333333     0.850900000000     0.538850000000     0          
C6       C      0.108000000000     0.815766666667     0.788850000000     0          
C6       C      0.608000000000     0.017566666667     0.288850000000     0          
C6       C      0.392000000000     0.315766666667     0.038850000000     0          
C6       C      0.558666666667     0.184233333333     0.038850000000     0          
C6       C      0.441333333333     0.149100000000     0.288850000000     0          
C6       C      0.608000000000     0.017566666667     0.788850000000     0          
C6       C      0.392000000000     0.315766666667     0.538850000000     0          
C6       C      0.558666666667     0.184233333333     0.538850000000     0          
C6       C      0.441333333333     0.149100000000     0.788850000000     0          
C6       C      0.608000000000     0.350900000000     0.288850000000     0          
C6       C      0.392000000000     0.649100000000     0.038850000000     0          
C6       C      0.558666666667     0.517566666667     0.038850000000     0          
C6       C      0.441333333333     0.482433333333     0.288850000000     0          
C6       C      0.608000000000     0.350900000000     0.788850000000     0          
C6       C      0.392000000000     0.649100000000     0.538850000000     0          
C6       C      0.558666666667     0.517566666667     0.538850000000     0          
C6       C      0.441333333333     0.482433333333     0.788850000000     0          
C6       C      0.608000000000     0.684233333333     0.288850000000     0          
C6       C      0.392000000000     0.982433333333     0.038850000000     0          
C6       C      0.558666666667     0.850900000000     0.038850000000     0          
C6       C      0.441333333333     0.815766666667     0.288850000000     0          
C6       C      0.608000000000     0.684233333333     0.788850000000     0          
C6       C      0.392000000000     0.982433333333     0.538850000000     0          
C6       C      0.558666666667     0.850900000000     0.538850000000     0          
C6       C      0.441333333333     0.815766666667     0.788850000000     0          
C6       C      0.941333333333     0.017566666667     0.288850000000     0          
C6       C      0.725333333333     0.315766666667     0.038850000000     0          
C6       C      0.892000000000     0.184233333333     0.038850000000     0          
C6       C      0.774666666667     0.149100000000     0.288850000000     0          
C6       C      0.941333333333     0.017566666667     0.788850000000     0          
C6       C      0.725333333333     0.315766666667     0.538850000000     0          
C6       C      0.892000000000     0.184233333333     0.538850000000     0          
C6       C      0.774666666667     0.149100000000     0.788850000000     0          
C6       C      0.941333333333     0.350900000000     0.288850000000     0          
C6       C      0.725333333333     0.649100000000     0.038850000000     0          
C6       C      0.892000000000     0.517566666667     0.038850000000     0          
C6       C      0.774666666667     0.482433333333     0.288850000000     0          
C6       C      0.941333333333     0.350900000000     0.788850000000     0          
C6       C      0.725333333333     0.649100000000     0.538850000000     0          
C6       C      0.892000000000     0.517566666667     0.538850000000     0          
C6       C      0.774666666667     0.482433333333     0.788850000000     0          
C6       C      0.941333333333     0.684233333333     0.288850000000     0          
C6       C      0.725333333333     0.982433333333     0.038850000000     0          
C6       C      0.892000000000     0.850900000000     0.038850000000     0          
C6       C      0.774666666667     0.815766666667     0.288850000000     0          
C6       C      0.941333333333     0.684233333333     0.788850000000     0          
C6       C      0.725333333333     0.982433333333     0.538850000000     0          
C6       C      0.892000000000     0.850900000000     0.538850000000     0          
C6       C      0.774666666667     0.815766666667     0.788850000000     0          
O3       O      0.294833333333     0.320500000000     0.286950000000     0          
O3       O      0.038500000000     0.012833333333     0.036950000000     0          
O3       O      0.205166666667     0.153833333333     0.036950000000     0          
O3       O      0.128166666667     0.179500000000     0.286950000000     0          
O3       O      0.294833333333     0.320500000000     0.786950000000     0          
O3       O      0.038500000000     0.012833333333     0.536950000000     0          
O3       O      0.205166666667     0.153833333333     0.536950000000     0          
O3       O      0.128166666667     0.179500000000     0.786950000000     0          
O3       O      0.294833333333     0.653833333333     0.286950000000     0          
O3       O      0.038500000000     0.346166666667     0.036950000000     0          
O3       O      0.205166666667     0.487166666667     0.036950000000     0          
O3       O      0.128166666667     0.512833333333     0.286950000000     0          
O3       O      0.294833333333     0.653833333333     0.786950000000     0          
O3       O      0.038500000000     0.346166666667     0.536950000000     0          
O3       O      0.205166666667     0.487166666667     0.536950000000     0          
O3       O      0.128166666667     0.512833333333     0.786950000000     0          
O3       O      0.294833333333     0.987166666667     0.286950000000     0          
O3       O      0.038500000000     0.679500000000     0.036950000000     0          
O3       O      0.205166666667     0.820500000000     0.036950000000     0          
O3       O      0.128166666667     0.846166666667     0.286950000000     0          
O3       O      0.294833333333     0.987166666667     0.786950000000     0          
O3       O      0.038500000000     0.679500000000     0.536950000000     0          
O3       O      0.205166666667     0.820500000000     0.536950000000     0          
O3       O      0.128166666667     0.846166666667     0.786950000000     0          
O3       O      0.628166666667     0.320500000000     0.286950000000     0          
O3       O      0.371833333333     0.012833333333     0.036950000000     0          
O3       O      0.538500000000     0.153833333333     0.036950000000     0          
O3       O      0.461500000000     0.179500000000     0.286950000000     0          
O3       O      0.628166666667     0.320500000000     0.786950000000     0          
O3       O      0.371833333333     0.012833333333     0.536950000000     0          
O3       O      0.538500000000     0.153833333333     0.536950000000     0          
O3       O      0.461500000000     0.179500000000     0.786950000000     0          
O3       O      0.628166666667     0.653833333333     0.286950000000     0          
O3       O      0.371833333333     0.346166666667     0.036950000000     0          
O3       O      0.538500000000     0.487166666667     0.036950000000     0          
O3       O      0.461500000000     0.512833333333     0.286950000000     0          
O3       O      0.628166666667     0.653833333333     0.786950000000     0          
O3       O      0.371833333333     0.346166666667     0.536950000000     0          
O3       O      0.538500000000     0.487166666667     0.536950000000     0          
O3       O      0.461500000000     0.512833333333     0.786950000000     0          
O3       O      0.628166666667     0.987166666667     0.286950000000     0          
O3       O      0.371833333333     0.679500000000     0.036950000000     0          
O3       O      0.538500000000     0.820500000000     0.036950000000     0          
O3       O      0.461500000000     0.846166666667     0.286950000000     0          
O3       O      0.628166666667     0.987166666667     0.786950000000     0          
O3       O      0.371833333333     0.679500000000     0.536950000000     0          
O3       O      0.538500000000     0.820500000000     0.536950000000     0          
O3       O      0.461500000000     0.846166666667     0.786950000000     0          
O3       O      0.961500000000     0.320500000000     0.286950000000     0          
O3       O      0.705166666667     0.012833333333     0.036950000000     0          
O3       O      0.871833333333     0.153833333333     0.036950000000     0          
O3       O      0.794833333333     0.179500000000     0.286950000000     0          
O3       O      0.961500000000     0.320500000000     0.786950000000     0          
O3       O      0.705166666667     0.012833333333     0.536950000000     0          
O3       O      0.871833333333     0.153833333333     0.536950000000     0          
O3       O      0.794833333333     0.179500000000     0.786950000000     0          
O3       O      0.961500000000     0.653833333333     0.286950000000     0          
O3       O      0.705166666667     0.346166666667     0.036950000000     0          
O3       O      0.871833333333     0.487166666667     0.036950000000     0          
O3       O      0.794833333333     0.512833333333     0.286950000000     0          
O3       O      0.961500000000     0.653833333333     0.786950000000     0          
O3       O      0.705166666667     0.346166666667     0.536950000000     0          
O3       O      0.871833333333     0.487166666667     0.536950000000     0          
O3       O      0.794833333333     0.512833333333     0.786950000000     0          
O3       O      0.961500000000     0.987166666667     0.286950000000     0          
O3       O      0.705166666667     0.679500000000     0.036950000000     0          
O3       O      0.871833333333     0.820500000000     0.036950000000     0          
O3       O      0.794833333333     0.846166666667     0.286950000000     0          
O3       O      0.961500000000     0.987166666667     0.786950000000     0          
O3       O      0.705166666667     0.679500000000     0.536950000000     0          
O3       O      0.871833333333     0.820500000000     0.536950000000     0          
O3       O      0.794833333333     0.846166666667     0.786950000000     0          
O4       O      0.250233333333     0.027566666667     0.268450000000     0          
O4       O      0.083100000000     0.305766666667     0.018450000000     0          
O4       O      0.249766666667     0.194233333333     0.018450000000     0          
O4       O      0.083566666667     0.139100000000     0.268450000000     0          
O4       O      0.250233333333     0.027566666667     0.768450000000     0          
O4       O      0.083100000000     0.305766666667     0.518450000000     0          
O4       O      0.249766666667     0.194233333333     0.518450000000     0          
O4       O      0.083566666667     0.139100000000     0.768450000000     0          
O4       O      0.250233333333     0.360900000000     0.268450000000     0          
O4       O      0.083100000000     0.639100000000     0.018450000000     0          
O4       O      0.249766666667     0.527566666667     0.018450000000     0          
O4       O      0.083566666667     0.472433333333     0.268450000000     0          
O4       O      0.250233333333     0.360900000000     0.768450000000     0          
O4       O      0.083100000000     0.639100000000     0.518450000000     0          
O4       O      0.249766666667     0.527566666667     0.518450000000     0          
O4       O      0.083566666667     0.472433333333     0.768450000000     0          
O4       O      0.250233333333     0.694233333333     0.268450000000     0          
O4       O      0.083100000000     0.972433333333     0.018450000000     0          
O4       O      0.249766666667     0.860900000000     0.018450000000     0          
O4       O      0.083566666667     0.805766666667     0.268450000000     0          
O4       O      0.250233333333     0.694233333333     0.768450000000     0          
O4       O      0.083100000000     0.972433333333     0.518450000000     0          
O4       O      0.249766666667     0.860900000000     0.518450000000     0          
O4       O      0.083566666667     0.805766666667     0.768450000000     0          
O4       O      0.583566666667     0.027566666667     0.268450000000     0          
O4       O      0.416433333333     0.305766666667     0.018450000000     0          
O4       O      0.583100000000     0.194233333333     0.018450000000     0          
O4       O      0.416900000000     0.139100000000     0.268450000000     0          
O4       O      0.583566666667     0.027566666667     0.768450000000     0          
O4       O      0.416433333333     0.305766666667     0.518450000000     0          
O4       O      0.583100000000     0.194233333333     0.518450000000     0          
O4       O      0.416900000000     0.139100000000     0.768450000000     0          
O4       O      0.583566666667     0.360900000000     0.268450000000     0          
O4       O      0.416433333333     0.639100000000     0.018450000000     0          
O4       O      0.583100000000     0.527566666667     0.018450000000     0          
O4       O      0.416900000000     0.472433333333     0.268450000000     0          
O4       O      0.583566666667     0.360900000000     0.768450000000     0          
O4       O      0.416433333333     0.639100000000     0.518450000000     0          
O4       O      0.583100000000     0.527566666667     0.518450000000     0          
O4       O      0.416900000000     0.472433333333     0.768450000000     0          
O4       O      0.583566666667     0.694233333333     0.268450000000     0          
O4       O      0.416433333333     0.972433333333     0.018450000000     0          
O4       O      0.583100000000     0.860900000000     0.018450000000     0          
O4       O      0.416900000000     0.805766666667     0.268450000000     0          
O4       O      0.583566666667     0.694233333333     0.768450000000     0          
O4       O      0.416433333333     0.972433333333     0.518450000000     0          
O4       O      0.583100000000     0.860900000000     0.518450000000     0          
O4       O      0.416900000000     0.805766666667     0.768450000000     0          
O4       O      0.916900000000     0.027566666667     0.268450000000     0          
O4       O      0.749766666667     0.305766666667     0.018450000000     0          
O4       O      0.916433333333     0.194233333333     0.018450000000     0          
O4       O      0.750233333333     0.139100000000     0.268450000000     0          
O4       O      0.916900000000     0.027566666667     0.768450000000     0          
O4       O      0.749766666667     0.305766666667     0.518450000000     0          
O4       O      0.916433333333     0.194233333333     0.518450000000     0          
O4       O      0.750233333333     0.139100000000     0.768450000000     0          
O4       O      0.916900000000     0.360900000000     0.268450000000     0          
O4       O      0.749766666667     0.639100000000     0.018450000000     0          
O4       O      0.916433333333     0.527566666667     0.018450000000     0          
O4       O      0.750233333333     0.472433333333     0.268450000000     0          
O4       O      0.916900000000     0.360900000000     0.768450000000     0          
O4       O      0.749766666667     0.639100000000     0.518450000000     0          
O4       O      0.916433333333     0.527566666667     0.518450000000     0          
O4       O      0.750233333333     0.472433333333     0.768450000000     0          
O4       O      0.916900000000     0.694233333333     0.268450000000     0          
O4       O      0.749766666667     0.972433333333     0.018450000000     0          
O4       O      0.916433333333     0.860900000000     0.018450000000     0          
O4       O      0.750233333333     0.805766666667     0.268450000000     0          
O4       O      0.916900000000     0.694233333333     0.768450000000     0          
O4       O      0.749766666667     0.972433333333     0.518450000000     0          
O4       O      0.916433333333     0.860900000000     0.518450000000     0          
O4       O      0.750233333333     0.805766666667     0.768450000000     0          
N3       N      0.330366666667     0.166666666667     0.401850000000     0          
N3       N      0.002966666667     0.166666666667     0.151850000000     0          
N3       N      0.169633333333     0.000000000000     0.151850000000     0          
N3       N      0.163700000000     0.000000000000     0.401850000000     0          
N3       N      0.330366666667     0.166666666667     0.901850000000     0          
N3       N      0.002966666667     0.166666666667     0.651850000000     0          
N3       N      0.169633333333     0.000000000000     0.651850000000     0          
N3       N      0.163700000000     0.000000000000     0.901850000000     0          
N3       N      0.330366666667     0.500000000000     0.401850000000     0          
N3       N      0.002966666667     0.500000000000     0.151850000000     0          
N3       N      0.169633333333     0.333333333333     0.151850000000     0          
N3       N      0.163700000000     0.333333333333     0.401850000000     0          
N3       N      0.330366666667     0.500000000000     0.901850000000     0          
N3       N      0.002966666667     0.500000000000     0.651850000000     0          
N3       N      0.169633333333     0.333333333333     0.651850000000     0          
N3       N      0.163700000000     0.333333333333     0.901850000000     0          
N3       N      0.330366666667     0.833333333333     0.401850000000     0          
N3       N      0.002966666667     0.833333333333     0.151850000000     0          
N3       N      0.169633333333     0.666666666667     0.151850000000     0          
N3       N      0.163700000000     0.666666666667     0.401850000000     0          
N3       N      0.330366666667     0.833333333333     0.901850000000     0          
N3       N      0.002966666667     0.833333333333     0.651850000000     0          
N3       N      0.169633333333     0.666666666667     0.651850000000     0          
N3       N      0.163700000000     0.666666666667     0.901850000000     0          
N3       N      0.663700000000     0.166666666667     0.401850000000     0          
N3       N      0.336300000000     0.166666666667     0.151850000000     0          
N3       N      0.502966666667     0.000000000000     0.151850000000     0          
N3       N      0.497033333333     0.000000000000     0.401850000000     0          
N3       N      0.663700000000     0.166666666667     0.901850000000     0          
N3       N      0.336300000000     0.166666666667     0.651850000000     0          
N3       N      0.502966666667     0.000000000000     0.651850000000     0          
N3       N      0.497033333333     0.000000000000     0.901850000000     0          
N3       N      0.663700000000     0.500000000000     0.401850000000     0          
N3       N      0.336300000000     0.500000000000     0.151850000000     0          
N3       N      0.502966666667     0.333333333333     0.151850000000     0          
N3       N      0.497033333333     0.333333333333     0.401850000000     0          
N3       N      0.663700000000     0.500000000000     0.901850000000     0          
N3       N      0.336300000000     0.500000000000     0.651850000000     0          
N3       N      0.502966666667     0.333333333333     0.651850000000     0          
N3       N      0.497033333333     0.333333333333     0.901850000000     0          
N3       N      0.663700000000     0.833333333333     0.401850000000     0          
N3       N      0.336300000000     0.833333333333     0.151850000000     0          
N3       N      0.502966666667     0.666666666667     0.151850000000     0          
N3       N      0.497033333333     0.666666666667     0.401850000000     0          
N3       N      0.663700000000     0.833333333333     0.901850000000     0          
N3       N      0.336300000000     0.833333333333     0.651850000000     0          
N3       N      0.502966666667     0.666666666667     0.651850000000     0          
N3       N      0.497033333333     0.666666666667     0.901850000000     0          
N3       N      0.997033333333     0.166666666667     0.401850000000     0          
N3       N      0.669633333333     0.166666666667     0.151850000000     0          
N3       N      0.836300000000     0.000000000000     0.151850000000     0          
N3       N      0.830366666667     0.000000000000     0.401850000000     0          
N3       N      0.997033333333     0.166666666667     0.901850000000     0          
N3       N      0.669633333333     0.166666666667     0.651850000000     0          
N3       N      0.836300000000     0.000000000000     0.651850000000     0          
N3       N      0.830366666667     0.000000000000     0.901850000000     0          
N3       N      0.997033333333     0.500000000000     0.401850000000     0          
N3       N      0.669633333333     0.500000000000     0.151850000000     0          
N3       N      0.836300000000     0.333333333333     0.151850000000     0          
N3       N      0.830366666667     0.333333333333     0.401850000000     0          
N3       N      0.997033333333     0.500000000000     0.901850000000     0          
N3       N      0.669633333333     0.500000000000     0.651850000000     0          
N3       N      0.836300000000     0.333333333333     0.651850000000     0          
N3       N      0.830366666667     0.333333333333     0.901850000000     0          
N3       N      0.997033333333     0.833333333333     0.401850000000     0          
N3       N      0.669633333333     0.833333333333     0.151850000000     0          
N3       N      0.836300000000     0.666666666667     0.151850000000     0          
N3       N      0.830366666667     0.666666666667     0.401850000000     0          
N3       N      0.997033333333     0.833333333333     0.901850000000     0          
N3       N      0.669633333333     0.833333333333     0.651850000000     0          
N3       N      0.836300000000     0.666666666667     0.651850000000     0          
N3       N      0.830366666667     0.666666666667     0.901850000000     0          
C7       C      0.324166666667     0.200566666667     0.384700000000     0          
C7       C      0.009166666667     0.132766666667     0.134700000000     0          
C7       C      0.175833333333     0.033900000000     0.134700000000     0          
C7       C      0.157500000000     0.299433333333     0.384700000000     0          
C7       C      0.324166666667     0.200566666667     0.884700000000     0          
C7       C      0.009166666667     0.132766666667     0.634700000000     0          
C7       C      0.175833333333     0.033900000000     0.634700000000     0          
C7       C      0.157500000000     0.299433333333     0.884700000000     0          
C7       C      0.324166666667     0.533900000000     0.384700000000     0          
C7       C      0.009166666667     0.466100000000     0.134700000000     0          
C7       C      0.175833333333     0.367233333333     0.134700000000     0          
C7       C      0.157500000000     0.632766666667     0.384700000000     0          
C7       C      0.324166666667     0.533900000000     0.884700000000     0          
C7       C      0.009166666667     0.466100000000     0.634700000000     0          
C7       C      0.175833333333     0.367233333333     0.634700000000     0          
C7       C      0.157500000000     0.632766666667     0.884700000000     0          
C7       C      0.324166666667     0.867233333333     0.384700000000     0          
C7       C      0.009166666667     0.799433333333     0.134700000000     0          
C7       C      0.175833333333     0.700566666667     0.134700000000     0          
C7       C      0.157500000000     0.966100000000     0.384700000000     0          
C7       C      0.324166666667     0.867233333333     0.884700000000     0          
C7       C      0.009166666667     0.799433333333     0.634700000000     0          
C7       C      0.175833333333     0.700566666667     0.634700000000     0          
C7       C      0.157500000000     0.966100000000     0.884700000000     0          
C7       C      0.657500000000     0.200566666667     0.384700000000     0          
C7       C      0.342500000000     0.132766666667     0.134700000000     0          
C7       C      0.509166666667     0.033900000000     0.134700000000     0          
C7       C      0.490833333333     0.299433333333     0.384700000000     0          
C7       C      0.657500000000     0.200566666667     0.884700000000     0          
C7       C      0.342500000000     0.132766666667     0.634700000000     0          
C7       C      0.509166666667     0.033900000000     0.634700000000     0          
C7       C      0.490833333333     0.299433333333     0.884700000000     0          
C7       C      0.657500000000     0.533900000000     0.384700000000     0          
C7       C      0.342500000000     0.466100000000     0.134700000000     0          
C7       C      0.509166666667     0.367233333333     0.134700000000     0          
C7       C      0.490833333333     0.632766666667     0.384700000000     0          
C7       C      0.657500000000     0.533900000000     0.884700000000     0          
C7       C      0.342500000000     0.466100000000     0.634700000000     0          
C7       C      0.509166666667     0.367233333333     0.634700000000     0          
C7       C      0.490833333333     0.632766666667     0.884700000000     0          
C7       C      0.657500000000     0.867233333333     0.384700000000     0          
C7       C      0.342500000000     0.799433333333     0.134700000000     0          
C7       C      0.509166666667     0.700566666667     0.134700000000     0          
C7       C      0.490833333333     0.966100000000     0.384700000000     0          
C7       C      0.657500000000     0.867233333333     0.884700000000     0          
C7       C      0.342500000000     0.799433333333     0.634700000000     0          
C7       C      0.509166666667     0.700566666667     0.634700000000     0          
C7       C      0.490833333333     0.966100000000     0.884700000000     0          
C7       C      0.990833333333     0.200566666667     0.384700000000     0          
C7       C      0.675833333333     0.132766666667     0.134700000000     0          
C7       C      0.842500000000     0.033900000000     0.134700000000     0          
C7       C      0.824166666667     0.299433333333     0.384700000000     0          
C7       C      0.990833333333     0.200566666667     0.884700000000     0          
C7       C      0.675833333333     0.132766666667     0.634700000000     0          
C7       C      0.842500000000     0.033900000000     0.634700000000     0          
C7       C      0.824166666667     0.299433333333     0.884700000000     0          
C7       C      0.990833333333     0.533900000000     0.384700000000     0          
C7       C      0.675833333333     0.466100000000     0.134700000000     0          
C7       C      0.842500000000     0.367233333333     0.134700000000     0          
C7       C      0.824166666667     0.632766666667     0.384700000000     0          
C7       C      0.990833333333     0.533900000000     0.884700000000     0          
C7       C      0.675833333333     0.466100000000     0.634700000000     0          
C7       C      0.842500000000     0.367233333333     0.634700000000     0          
C7       C      0.824166666667     0.632766666667     0.884700000000     0          
C7       C      0.990833333333     0.867233333333     0.384700000000     0          
C7       C      0.675833333333     0.799433333333     0.134700000000     0          
C7       C      0.842500000000     0.700566666667     0.134700000000     0          
C7       C      0.824166666667     0.966100000000     0.384700000000     0          
C7       C      0.990833333333     0.867233333333     0.884700000000     0          
C7       C      0.675833333333     0.799433333333     0.634700000000     0          
C7       C      0.842500000000     0.700566666667     0.634700000000     0          
C7       C      0.824166666667     0.966100000000     0.884700000000     0          
H3       H      0.300066666667     0.209900000000     0.384200000000     0          
H3       H      0.033266666667     0.123433333333     0.134200000000     0          
H3       H      0.199933333333     0.043233333333     0.134200000000     0          
H3       H      0.133400000000     0.290100000000     0.384200000000     0          
H3       H      0.300066666667     0.209900000000     0.884200000000     0          
H3       H      0.033266666667     0.123433333333     0.634200000000     0          
H3       H      0.199933333333     0.043233333333     0.634200000000     0          
H3       H      0.133400000000     0.290100000000     0.884200000000     0          
H3       H      0.300066666667     0.543233333333     0.384200000000     0          
H3       H      0.033266666667     0.456766666667     0.134200000000     0          
H3       H      0.199933333333     0.376566666667     0.134200000000     0          
H3       H      0.133400000000     0.623433333333     0.384200000000     0          
H3       H      0.300066666667     0.543233333333     0.884200000000     0          
H3       H      0.033266666667     0.456766666667     0.634200000000     0          
H3       H      0.199933333333     0.376566666667     0.634200000000     0          
H3       H      0.133400000000     0.623433333333     0.884200000000     0          
H3       H      0.300066666667     0.876566666667     0.384200000000     0          
H3       H      0.033266666667     0.790100000000     0.134200000000     0          
H3       H      0.199933333333     0.709900000000     0.134200000000     0          
H3       H      0.133400000000     0.956766666667     0.384200000000     0          
H3       H      0.300066666667     0.876566666667     0.884200000000     0          
H3       H      0.033266666667     0.790100000000     0.634200000000     0          
H3       H      0.199933333333     0.709900000000     0.634200000000     0          
H3       H      0.133400000000     0.956766666667     0.884200000000     0          
H3       H      0.633400000000     0.209900000000     0.384200000000     0          
H3       H      0.366600000000     0.123433333333     0.134200000000     0          
H3       H      0.533266666667     0.043233333333     0.134200000000     0          
H3       H      0.466733333333     0.290100000000     0.384200000000     0          
H3       H      0.633400000000     0.209900000000     0.884200000000     0          
H3       H      0.366600000000     0.123433333333     0.634200000000     0          
H3       H      0.533266666667     0.043233333333     0.634200000000     0          
H3       H      0.466733333333     0.290100000000     0.884200000000     0          
H3       H      0.633400000000     0.543233333333     0.384200000000     0          
H3       H      0.366600000000     0.456766666667     0.134200000000     0          
H3       H      0.533266666667     0.376566666667     0.134200000000     0          
H3       H      0.466733333333     0.623433333333     0.384200000000     0          
H3       H      0.633400000000     0.543233333333     0.884200000000     0          
H3       H      0.366600000000     0.456766666667     0.634200000000     0          
H3       H      0.533266666667     0.376566666667     0.634200000000     0          
H3       H      0.466733333333     0.623433333333     0.884200000000     0          
H3       H      0.633400000000     0.876566666667     0.384200000000     0          
H3       H      0.366600000000     0.790100000000     0.134200000000     0          
H3       H      0.533266666667     0.709900000000     0.134200000000     0          
H3       H      0.466733333333     0.956766666667     0.384200000000     0          
H3       H      0.633400000000     0.876566666667     0.884200000000     0          
H3       H      0.366600000000     0.790100000000     0.634200000000     0          
H3       H      0.533266666667     0.709900000000     0.634200000000     0          
H3       H      0.466733333333     0.956766666667     0.884200000000     0          
H3       H      0.966733333333     0.209900000000     0.384200000000     0          
H3       H      0.699933333333     0.123433333333     0.134200000000     0          
H3       H      0.866600000000     0.043233333333     0.134200000000     0          
H3       H      0.800066666667     0.290100000000     0.384200000000     0          
H3       H      0.966733333333     0.209900000000     0.884200000000     0          
H3       H      0.699933333333     0.123433333333     0.634200000000     0          
H3       H      0.866600000000     0.043233333333     0.634200000000     0          
H3       H      0.800066666667     0.290100000000     0.884200000000     0          
H3       H      0.966733333333     0.543233333333     0.384200000000     0          
H3       H      0.699933333333     0.456766666667     0.134200000000     0          
H3       H      0.866600000000     0.376566666667     0.134200000000     0          
H3       H      0.800066666667     0.623433333333     0.384200000000     0          
H3       H      0.966733333333     0.543233333333     0.884200000000     0          
H3       H      0.699933333333     0.456766666667     0.634200000000     0          
H3       H      0.866600000000     0.376566666667     0.634200000000     0          
H3       H      0.800066666667     0.623433333333     0.884200000000     0          
H3       H      0.966733333333     0.876566666667     0.384200000000     0          
H3       H      0.699933333333     0.790100000000     0.134200000000     0          
H3       H      0.866600000000     0.709900000000     0.134200000000     0          
H3       H      0.800066666667     0.956766666667     0.384200000000     0          
H3       H      0.966733333333     0.876566666667     0.884200000000     0          
H3       H      0.699933333333     0.790100000000     0.634200000000     0          
H3       H      0.866600000000     0.709900000000     0.634200000000     0          
H3       H      0.800066666667     0.956766666667     0.884200000000     0          
N4       N      0.015633333333     0.222400000000     0.368200000000     0          
N4       N      0.317700000000     0.110933333333     0.118200000000     0          
N4       N      0.151033333333     0.055733333333     0.118200000000     0          
N4       N      0.182300000000     0.277600000000     0.368200000000     0          
N4       N      0.015633333333     0.222400000000     0.868200000000     0          
N4       N      0.317700000000     0.110933333333     0.618200000000     0          
N4       N      0.151033333333     0.055733333333     0.618200000000     0          
N4       N      0.182300000000     0.277600000000     0.868200000000     0          
N4       N      0.015633333333     0.555733333333     0.368200000000     0          
N4       N      0.317700000000     0.444266666667     0.118200000000     0          
N4       N      0.151033333333     0.389066666667     0.118200000000     0          
N4       N      0.182300000000     0.610933333333     0.368200000000     0          
N4       N      0.015633333333     0.555733333333     0.868200000000     0          
N4       N      0.317700000000     0.444266666667     0.618200000000     0          
N4       N      0.151033333333     0.389066666667     0.618200000000     0          
N4       N      0.182300000000     0.610933333333     0.868200000000     0          
N4       N      0.015633333333     0.889066666667     0.368200000000     0          
N4       N      0.317700000000     0.777600000000     0.118200000000     0          
N4       N      0.151033333333     0.722400000000     0.118200000000     0          
N4       N      0.182300000000     0.944266666667     0.368200000000     0          
N4       N      0.015633333333     0.889066666667     0.868200000000     0          
N4       N      0.317700000000     0.777600000000     0.618200000000     0          
N4       N      0.151033333333     0.722400000000     0.618200000000     0          
N4       N      0.182300000000     0.944266666667     0.868200000000     0          
N4       N      0.348966666667     0.222400000000     0.368200000000     0          
N4       N      0.651033333333     0.110933333333     0.118200000000     0          
N4       N      0.484366666667     0.055733333333     0.118200000000     0          
N4       N      0.515633333333     0.277600000000     0.368200000000     0          
N4       N      0.348966666667     0.222400000000     0.868200000000     0          
N4       N      0.651033333333     0.110933333333     0.618200000000     0          
N4       N      0.484366666667     0.055733333333     0.618200000000     0          
N4       N      0.515633333333     0.277600000000     0.868200000000     0          
N4       N      0.348966666667     0.555733333333     0.368200000000     0          
N4       N      0.651033333333     0.444266666667     0.118200000000     0          
N4       N      0.484366666667     0.389066666667     0.118200000000     0          
N4       N      0.515633333333     0.610933333333     0.368200000000     0          
N4       N      0.348966666667     0.555733333333     0.868200000000     0          
N4       N      0.651033333333     0.444266666667     0.618200000000     0          
N4       N      0.484366666667     0.389066666667     0.618200000000     0          
N4       N      0.515633333333     0.610933333333     0.868200000000     0          
N4       N      0.348966666667     0.889066666667     0.368200000000     0          
N4       N      0.651033333333     0.777600000000     0.118200000000     0          
N4       N      0.484366666667     0.722400000000     0.118200000000     0          
N4       N      0.515633333333     0.944266666667     0.368200000000     0          
N4       N      0.348966666667     0.889066666667     0.868200000000     0          
N4       N      0.651033333333     0.777600000000     0.618200000000     0          
N4       N      0.484366666667     0.722400000000     0.618200000000     0          
N4       N      0.515633333333     0.944266666667     0.868200000000     0          
N4       N      0.682300000000     0.222400000000     0.368200000000     0          
N4       N      0.984366666667     0.110933333333     0.118200000000     0          
N4       N      0.817700000000     0.055733333333     0.118200000000     0          
N4       N      0.848966666667     0.277600000000     0.368200000000     0          
N4       N      0.682300000000     0.222400000000     0.868200000000     0          
N4       N      0.984366666667     0.110933333333     0.618200000000     0          
N4       N      0.817700000000     0.055733333333     0.618200000000     0          
N4       N      0.848966666667     0.277600000000     0.868200000000     0          
N4       N      0.682300000000     0.555733333333     0.368200000000     0          
N4       N      0.984366666667     0.444266666667     0.118200000000     0          
N4       N      0.817700000000     0.389066666667     0.118200000000     0          
N4       N      0.848966666667     0.610933333333     0.368200000000     0          
N4       N      0.682300000000     0.555733333333     0.868200000000     0          
N4       N      0.984366666667     0.444266666667     0.618200000000     0          
N4       N      0.817700000000     0.389066666667     0.618200000000     0          
N4       N      0.848966666667     0.610933333333     0.868200000000     0          
N4       N      0.682300000000     0.889066666667     0.368200000000     0          
N4       N      0.984366666667     0.777600000000     0.118200000000     0          
N4       N      0.817700000000     0.722400000000     0.118200000000     0          
N4       N      0.848966666667     0.944266666667     0.368200000000     0          
N4       N      0.682300000000     0.889066666667     0.868200000000     0          
N4       N      0.984366666667     0.777600000000     0.618200000000     0          
N4       N      0.817700000000     0.722400000000     0.618200000000     0          
N4       N      0.848966666667     0.944266666667     0.868200000000     0          
C8       C      0.050033333333     0.208866666667     0.369700000000     0          
C8       C      0.283300000000     0.124466666667     0.119700000000     0          
C8       C      0.116633333333     0.042200000000     0.119700000000     0          
C8       C      0.216700000000     0.291133333333     0.369700000000     0          
C8       C      0.050033333333     0.208866666667     0.869700000000     0          
C8       C      0.283300000000     0.124466666667     0.619700000000     0          
C8       C      0.116633333333     0.042200000000     0.619700000000     0          
C8       C      0.216700000000     0.291133333333     0.869700000000     0          
C8       C      0.050033333333     0.542200000000     0.369700000000     0          
C8       C      0.283300000000     0.457800000000     0.119700000000     0          
C8       C      0.116633333333     0.375533333333     0.119700000000     0          
C8       C      0.216700000000     0.624466666667     0.369700000000     0          
C8       C      0.050033333333     0.542200000000     0.869700000000     0          
C8       C      0.283300000000     0.457800000000     0.619700000000     0          
C8       C      0.116633333333     0.375533333333     0.619700000000     0          
C8       C      0.216700000000     0.624466666667     0.869700000000     0          
C8       C      0.050033333333     0.875533333333     0.369700000000     0          
C8       C      0.283300000000     0.791133333333     0.119700000000     0          
C8       C      0.116633333333     0.708866666667     0.119700000000     0          
C8       C      0.216700000000     0.957800000000     0.369700000000     0          
C8       C      0.050033333333     0.875533333333     0.869700000000     0          
C8       C      0.283300000000     0.791133333333     0.619700000000     0          
C8       C      0.116633333333     0.708866666667     0.619700000000     0          
C8       C      0.216700000000     0.957800000000     0.869700000000     0          
C8       C      0.383366666667     0.208866666667     0.369700000000     0          
C8       C      0.616633333333     0.124466666667     0.119700000000     0          
C8       C      0.449966666667     0.042200000000     0.119700000000     0          
C8       C      0.550033333333     0.291133333333     0.369700000000     0          
C8       C      0.383366666667     0.208866666667     0.869700000000     0          
C8       C      0.616633333333     0.124466666667     0.619700000000     0          
C8       C      0.449966666667     0.042200000000     0.619700000000     0          
C8       C      0.550033333333     0.291133333333     0.869700000000     0          
C8       C      0.383366666667     0.542200000000     0.369700000000     0          
C8       C      0.616633333333     0.457800000000     0.119700000000     0          
C8       C      0.449966666667     0.375533333333     0.119700000000     0          
C8       C      0.550033333333     0.624466666667     0.369700000000     0          
C8       C      0.383366666667     0.542200000000     0.869700000000     0          
C8       C      0.616633333333     0.457800000000     0.619700000000     0          
C8       C      0.449966666667     0.375533333333     0.619700000000     0          
C8       C      0.550033333333     0.624466666667     0.869700000000     0          
C8       C      0.383366666667     0.875533333333     0.369700000000     0          
C8       C      0.616633333333     0.791133333333     0.119700000000     0          
C8       C      0.449966666667     0.708866666667     0.119700000000     0          
C8       C      0.550033333333     0.957800000000     0.369700000000     0          
C8       C      0.383366666667     0.875533333333     0.869700000000     0          
C8       C      0.616633333333     0.791133333333     0.619700000000     0          
C8       C      0.449966666667     0.708866666667     0.619700000000     0          
C8       C      0.550033333333     0.957800000000     0.869700000000     0          
C8       C      0.716700000000     0.208866666667     0.369700000000     0          
C8       C      0.949966666667     0.124466666667     0.119700000000     0          
C8       C      0.783300000000     0.042200000000     0.119700000000     0          
C8       C      0.883366666667     0.291133333333     0.369700000000     0          
C8       C      0.716700000000     0.208866666667     0.869700000000     0          
C8       C      0.949966666667     0.124466666667     0.619700000000     0          
C8       C      0.783300000000     0.042200000000     0.619700000000     0          
C8       C      0.883366666667     0.291133333333     0.869700000000     0          
C8       C      0.716700000000     0.542200000000     0.369700000000     0          
C8       C      0.949966666667     0.457800000000     0.119700000000     0          
C8       C      0.783300000000     0.375533333333     0.119700000000     0          
C8       C      0.883366666667     0.624466666667     0.369700000000     0          
C8       C      0.716700000000     0.542200000000     0.869700000000     0          
C8       C      0.949966666667     0.457800000000     0.619700000000     0          
C8       C      0.783300000000     0.375533333333     0.619700000000     0          
C8       C      0.883366666667     0.624466666667     0.869700000000     0          
C8       C      0.716700000000     0.875533333333     0.369700000000     0          
C8       C      0.949966666667     0.791133333333     0.119700000000     0          
C8       C      0.783300000000     0.708866666667     0.119700000000     0          
C8       C      0.883366666667     0.957800000000     0.369700000000     0          
C8       C      0.716700000000     0.875533333333     0.869700000000     0          
C8       C      0.949966666667     0.791133333333     0.619700000000     0          
C8       C      0.783300000000     0.708866666667     0.619700000000     0          
C8       C      0.883366666667     0.957800000000     0.869700000000     0          
C9       C      0.060066666667     0.173200000000     0.386800000000     0          
C9       C      0.273266666667     0.160133333333     0.136800000000     0          
C9       C      0.106600000000     0.006533333333     0.136800000000     0          
C9       C      0.226733333333     0.326800000000     0.386800000000     0          
C9       C      0.060066666667     0.173200000000     0.886800000000     0          
C9       C      0.273266666667     0.160133333333     0.636800000000     0          
C9       C      0.106600000000     0.006533333333     0.636800000000     0          
C9       C      0.226733333333     0.326800000000     0.886800000000     0          
C9       C      0.060066666667     0.506533333333     0.386800000000     0          
C9       C      0.273266666667     0.493466666667     0.136800000000     0          
C9       C      0.106600000000     0.339866666667     0.136800000000     0          
C9       C      0.226733333333     0.660133333333     0.386800000000     0          
C9       C      0.060066666667     0.506533333333     0.886800000000     0          
C9       C      0.273266666667     0.493466666667     0.636800000000     0          
C9       C      0.106600000000     0.339866666667     0.636800000000     0          
C9       C      0.226733333333     0.660133333333     0.886800000000     0          
C9       C      0.060066666667     0.839866666667     0.386800000000     0          
C9       C      0.273266666667     0.826800000000     0.136800000000     0          
C9       C      0.106600000000     0.673200000000     0.136800000000     0          
C9       C      0.226733333333     0.993466666667     0.386800000000     0          
C9       C      0.060066666667     0.839866666667     0.886800000000     0          
C9       C      0.273266666667     0.826800000000     0.636800000000     0          
C9       C      0.106600000000     0.673200000000     0.636800000000     0          
C9       C      0.226733333333     0.993466666667     0.886800000000     0          
C9       C      0.393400000000     0.173200000000     0.386800000000     0          
C9       C      0.606600000000     0.160133333333     0.136800000000     0          
C9       C      0.439933333333     0.006533333333     0.136800000000     0          
C9       C      0.560066666667     0.326800000000     0.386800000000     0          
C9       C      0.393400000000     0.173200000000     0.886800000000     0          
C9       C      0.606600000000     0.160133333333     0.636800000000     0          
C9       C      0.439933333333     0.006533333333     0.636800000000     0          
C9       C      0.560066666667     0.326800000000     0.886800000000     0          
C9       C      0.393400000000     0.506533333333     0.386800000000     0          
C9       C      0.606600000000     0.493466666667     0.136800000000     0          
C9       C      0.439933333333     0.339866666667     0.136800000000     0          
C9       C      0.560066666667     0.660133333333     0.386800000000     0          
C9       C      0.393400000000     0.506533333333     0.886800000000     0          
C9       C      0.606600000000     0.493466666667     0.636800000000     0          
C9       C      0.439933333333     0.339866666667     0.636800000000     0          
C9       C      0.560066666667     0.660133333333     0.886800000000     0          
C9       C      0.393400000000     0.839866666667     0.386800000000     0          
C9       C      0.606600000000     0.826800000000     0.136800000000     0          
C9       C      0.439933333333     0.673200000000     0.136800000000     0          
C9       C      0.560066666667     0.993466666667     0.386800000000     0          
C9       C      0.393400000000     0.839866666667     0.886800000000     0          
C9       C      0.606600000000     0.826800000000     0.636800000000     0          
C9       C      0.439933333333     0.673200000000     0.636800000000     0          
C9       C      0.560066666667     0.993466666667     0.886800000000     0          
C9       C      0.726733333333     0.173200000000     0.386800000000     0          
C9       C      0.939933333333     0.160133333333     0.136800000000     0          
C9       C      0.773266666667     0.006533333333     0.136800000000     0          
C9       C      0.893400000000     0.326800000000     0.386800000000     0          
C9       C      0.726733333333     0.173200000000     0.886800000000     0          
C9       C      0.939933333333     0.160133333333     0.636800000000     0          
C9       C      0.773266666667     0.006533333333     0.636800000000     0          
C9       C      0.893400000000     0.326800000000     0.886800000000     0          
C9       C      0.726733333333     0.506533333333     0.386800000000     0          
C9       C      0.939933333333     0.493466666667     0.136800000000     0          
C9       C      0.773266666667     0.339866666667     0.136800000000     0          
C9       C      0.893400000000     0.660133333333     0.386800000000     0          
C9       C      0.726733333333     0.506533333333     0.886800000000     0          
C9       C      0.939933333333     0.493466666667     0.636800000000     0          
C9       C      0.773266666667     0.339866666667     0.636800000000     0          
C9       C      0.893400000000     0.660133333333     0.886800000000     0          
C9       C      0.726733333333     0.839866666667     0.386800000000     0          
C9       C      0.939933333333     0.826800000000     0.136800000000     0          
C9       C      0.773266666667     0.673200000000     0.136800000000     0          
C9       C      0.893400000000     0.993466666667     0.386800000000     0          
C9       C      0.726733333333     0.839866666667     0.886800000000     0          
C9       C      0.939933333333     0.826800000000     0.636800000000     0          
C9       C      0.773266666667     0.673200000000     0.636800000000     0          
C9       C      0.893400000000     0.993466666667     0.886800000000     0          
H4       H      0.084200000000     0.164133333333     0.387900000000     0          
H4       H      0.249133333333     0.169200000000     0.137900000000     0          
H4       H      0.082466666667     0.330800000000     0.137900000000     0          
H4       H      0.250866666667     0.002533333333     0.387900000000     0          
H4       H      0.084200000000     0.164133333333     0.887900000000     0          
H4       H      0.249133333333     0.169200000000     0.637900000000     0          
H4       H      0.082466666667     0.330800000000     0.637900000000     0          
H4       H      0.250866666667     0.002533333333     0.887900000000     0          
H4       H      0.084200000000     0.497466666667     0.387900000000     0          
H4       H      0.249133333333     0.502533333333     0.137900000000     0          
H4       H      0.082466666667     0.664133333333     0.137900000000     0          
H4       H      0.250866666667     0.335866666667     0.387900000000     0          
H4       H      0.084200000000     0.497466666667     0.887900000000     0          
H4       H      0.249133333333     0.502533333333     0.637900000000     0          
H4       H      0.082466666667     0.664133333333     0.637900000000     0          
H4       H      0.250866666667     0.335866666667     0.887900000000     0          
H4       H      0.084200000000     0.830800000000     0.387900000000     0          
H4       H      0.249133333333     0.835866666667     0.137900000000     0          
H4       H      0.082466666667     0.997466666667     0.137900000000     0          
H4       H      0.250866666667     0.669200000000     0.387900000000     0          
H4       H      0.084200000000     0.830800000000     0.887900000000     0          
H4       H      0.249133333333     0.835866666667     0.637900000000     0          
H4       H      0.082466666667     0.997466666667     0.637900000000     0          
H4       H      0.250866666667     0.669200000000     0.887900000000     0          
H4       H      0.417533333333     0.164133333333     0.387900000000     0          
H4       H      0.582466666667     0.169200000000     0.137900000000     0          
H4       H      0.415800000000     0.330800000000     0.137900000000     0          
H4       H      0.584200000000     0.002533333333     0.387900000000     0          
H4       H      0.417533333333     0.164133333333     0.887900000000     0          
H4       H      0.582466666667     0.169200000000     0.637900000000     0          
H4       H      0.415800000000     0.330800000000     0.637900000000     0          
H4       H      0.584200000000     0.002533333333     0.887900000000     0          
H4       H      0.417533333333     0.497466666667     0.387900000000     0          
H4       H      0.582466666667     0.502533333333     0.137900000000     0          
H4       H      0.415800000000     0.664133333333     0.137900000000     0          
H4       H      0.584200000000     0.335866666667     0.387900000000     0          
H4       H      0.417533333333     0.497466666667     0.887900000000     0          
H4       H      0.582466666667     0.502533333333     0.637900000000     0          
H4       H      0.415800000000     0.664133333333     0.637900000000     0          
H4       H      0.584200000000     0.335866666667     0.887900000000     0          
H4       H      0.417533333333     0.830800000000     0.387900000000     0          
H4       H      0.582466666667     0.835866666667     0.137900000000     0          
H4       H      0.415800000000     0.997466666667     0.137900000000     0          
H4       H      0.584200000000     0.669200000000     0.387900000000     0          
H4       H      0.417533333333     0.830800000000     0.887900000000     0          
H4       H      0.582466666667     0.835866666667     0.637900000000     0          
H4       H      0.415800000000     0.997466666667     0.637900000000     0          
H4       H      0.584200000000     0.669200000000     0.887900000000     0          
H4       H      0.750866666667     0.164133333333     0.387900000000     0          
H4       H      0.915800000000     0.169200000000     0.137900000000     0          
H4       H      0.749133333333     0.330800000000     0.137900000000     0          
H4       H      0.917533333333     0.002533333333     0.387900000000     0          
H4       H      0.750866666667     0.164133333333     0.887900000000     0          
H4       H      0.915800000000     0.169200000000     0.637900000000     0          
H4       H      0.749133333333     0.330800000000     0.637900000000     0          
H4       H      0.917533333333     0.002533333333     0.887900000000     0          
H4       H      0.750866666667     0.497466666667     0.387900000000     0          
H4       H      0.915800000000     0.502533333333     0.137900000000     0          
H4       H      0.749133333333     0.664133333333     0.137900000000     0          
H4       H      0.917533333333     0.335866666667     0.387900000000     0          
H4       H      0.750866666667     0.497466666667     0.887900000000     0          
H4       H      0.915800000000     0.502533333333     0.637900000000     0          
H4       H      0.749133333333     0.664133333333     0.637900000000     0          
H4       H      0.917533333333     0.335866666667     0.887900000000     0          
H4       H      0.750866666667     0.830800000000     0.387900000000     0          
H4       H      0.915800000000     0.835866666667     0.137900000000     0          
H4       H      0.749133333333     0.997466666667     0.137900000000     0          
H4       H      0.917533333333     0.669200000000     0.387900000000     0          
H4       H      0.750866666667     0.830800000000     0.887900000000     0          
H4       H      0.915800000000     0.835866666667     0.637900000000     0          
H4       H      0.749133333333     0.997466666667     0.637900000000     0          
H4       H      0.917533333333     0.669200000000     0.887900000000     0          
C10      C      0.031366666667     0.152900000000     0.401750000000     0          
C10      C      0.301966666667     0.180433333333     0.151750000000     0          
C10      C      0.135300000000     0.319566666667     0.151750000000     0          
C10      C      0.198033333333     0.013766666667     0.401750000000     0          
C10      C      0.031366666667     0.152900000000     0.901750000000     0          
C10      C      0.301966666667     0.180433333333     0.651750000000     0          
C10      C      0.135300000000     0.319566666667     0.651750000000     0          
C10      C      0.198033333333     0.013766666667     0.901750000000     0          
C10      C      0.031366666667     0.486233333333     0.401750000000     0          
C10      C      0.301966666667     0.513766666667     0.151750000000     0          
C10      C      0.135300000000     0.652900000000     0.151750000000     0          
C10      C      0.198033333333     0.347100000000     0.401750000000     0          
C10      C      0.031366666667     0.486233333333     0.901750000000     0          
C10      C      0.301966666667     0.513766666667     0.651750000000     0          
C10      C      0.135300000000     0.652900000000     0.651750000000     0          
C10      C      0.198033333333     0.347100000000     0.901750000000     0          
C10      C      0.031366666667     0.819566666667     0.401750000000     0          
C10      C      0.301966666667     0.847100000000     0.151750000000     0          
C10      C      0.135300000000     0.986233333333     0.151750000000     0          
C10      C      0.198033333333     0.680433333333     0.401750000000     0          
C10      C      0.031366666667     0.819566666667     0.901750000000     0          
C10      C      0.301966666667     0.847100000000     0.651750000000     0          
C10      C      0.135300000000     0.986233333333     0.651750000000     0          
C10      C      0.198033333333     0.680433333333     0.901750000000     0          
C10      C      0.364700000000     0.152900000000     0.401750000000     0          
C10      C      0.635300000000     0.180433333333     0.151750000000     0          
C10      C      0.468633333333     0.319566666667     0.151750000000     0          
C10      C      0.531366666667     0.013766666667     0.401750000000     0          
C10      C      0.364700000000     0.152900000000     0.901750000000     0          
C10      C      0.635300000000     0.180433333333     0.651750000000     0          
C10      C      0.468633333333     0.319566666667     0.651750000000     0          
C10      C      0.531366666667     0.013766666667     0.901750000000     0          
C10      C      0.364700000000     0.486233333333     0.401750000000     0          
C10      C      0.635300000000     0.513766666667     0.151750000000     0          
C10      C      0.468633333333     0.652900000000     0.151750000000     0          
C10      C      0.531366666667     0.347100000000     0.401750000000     0          
C10      C      0.364700000000     0.486233333333     0.901750000000     0          
C10      C      0.635300000000     0.513766666667     0.651750000000     0          
C10      C      0.468633333333     0.652900000000     0.651750000000     0          
C10      C      0.531366666667     0.347100000000     0.901750000000     0          
C10      C      0.364700000000     0.819566666667     0.401750000000     0          
C10      C      0.635300000000     0.847100000000     0.151750000000     0          
C10      C      0.468633333333     0.986233333333     0.151750000000     0          
C10      C      0.531366666667     0.680433333333     0.401750000000     0          
C10      C      0.364700000000     0.819566666667     0.901750000000     0          
C10      C      0.635300000000     0.847100000000     0.651750000000     0          
C10      C      0.468633333333     0.986233333333     0.651750000000     0          
C10      C      0.531366666667     0.680433333333     0.901750000000     0          
C10      C      0.698033333333     0.152900000000     0.401750000000     0          
C10      C      0.968633333333     0.180433333333     0.151750000000     0          
C10      C      0.801966666667     0.319566666667     0.151750000000     0          
C10      C      0.864700000000     0.013766666667     0.401750000000     0          
C10      C      0.698033333333     0.152900000000     0.901750000000     0          
C10      C      0.968633333333     0.180433333333     0.651750000000     0          
C10      C      0.801966666667     0.319566666667     0.651750000000     0          
C10      C      0.864700000000     0.013766666667     0.901750000000     0          
C10      C      0.698033333333     0.486233333333     0.401750000000     0          
C10      C      0.968633333333     0.513766666667     0.151750000000     0          
C10      C      0.801966666667     0.652900000000     0.151750000000     0          
C10      C      0.864700000000     0.347100000000     0.401750000000     0          
C10      C      0.698033333333     0.486233333333     0.901750000000     0          
C10      C      0.968633333333     0.513766666667     0.651750000000     0          
C10      C      0.801966666667     0.652900000000     0.651750000000     0          
C10      C      0.864700000000     0.347100000000     0.901750000000     0          
C10      C      0.698033333333     0.819566666667     0.401750000000     0          
C10      C      0.968633333333     0.847100000000     0.151750000000     0          
C10      C      0.801966666667     0.986233333333     0.151750000000     0          
C10      C      0.864700000000     0.680433333333     0.401750000000     0          
C10      C      0.698033333333     0.819566666667     0.901750000000     0          
C10      C      0.968633333333     0.847100000000     0.651750000000     0          
C10      C      0.801966666667     0.986233333333     0.651750000000     0          
C10      C      0.864700000000     0.680433333333     0.901750000000     0          
C11      C      0.038466666667     0.112900000000     0.420950000000     0          
C11      C      0.294866666667     0.220433333333     0.170950000000     0          
C11      C      0.128200000000     0.279566666667     0.170950000000     0          
C11      C      0.205133333333     0.053766666667     0.420950000000     0          
C11      C      0.038466666667     0.112900000000     0.920950000000     0          
C11      C      0.294866666667     0.220433333333     0.670950000000     0          
C11      C      0.128200000000     0.279566666667     0.670950000000     0          
C11      C      0.205133333333     0.053766666667     0.920950000000     0          
C11      C      0.038466666667     0.446233333333     0.420950000000     0          
C11      C      0.294866666667     0.553766666667     0.170950000000     0          
C11      C      0.128200000000     0.612900000000     0.170950000000     0          
C11      C      0.205133333333     0.387100000000     0.420950000000     0          
C11      C      0.038466666667     0.446233333333     0.920950000000     0          
C11      C      0.294866666667     0.553766666667     0.670950000000     0          
C11      C      0.128200000000     0.612900000000     0.670950000000     0          
C11      C      0.205133333333     0.387100000000     0.920950000000     0          
C11      C      0.038466666667     0.779566666667     0.420950000000     0          
C11      C      0.294866666667     0.887100000000     0.170950000000     0          
C11      C      0.128200000000     0.946233333333     0.170950000000     0          
C11      C      0.205133333333     0.720433333333     0.420950000000     0          
C11      C      0.038466666667     0.779566666667     0.920950000000     0          
C11      C      0.294866666667     0.887100000000     0.670950000000     0          
C11      C      0.128200000000     0.946233333333     0.670950000000     0          
C11      C      0.205133333333     0.720433333333     0.920950000000     0          
C11      C      0.371800000000     0.112900000000     0.420950000000     0          
C11      C      0.628200000000     0.220433333333     0.170950000000     0          
C11      C      0.461533333333     0.279566666667     0.170950000000     0          
C11      C      0.538466666667     0.053766666667     0.420950000000     0          
C11      C      0.371800000000     0.112900000000     0.920950000000     0          
C11      C      0.628200000000     0.220433333333     0.670950000000     0          
C11      C      0.461533333333     0.279566666667     0.670950000000     0          
C11      C      0.538466666667     0.053766666667     0.920950000000     0          
C11      C      0.371800000000     0.446233333333     0.420950000000     0          
C11      C      0.628200000000     0.553766666667     0.170950000000     0          
C11      C      0.461533333333     0.612900000000     0.170950000000     0          
C11      C      0.538466666667     0.387100000000     0.420950000000     0          
C11      C      0.371800000000     0.446233333333     0.920950000000     0          
C11      C      0.628200000000     0.553766666667     0.670950000000     0          
C11      C      0.461533333333     0.612900000000     0.670950000000     0          
C11      C      0.538466666667     0.387100000000     0.920950000000     0          
C11      C      0.371800000000     0.779566666667     0.420950000000     0          
C11      C      0.628200000000     0.887100000000     0.170950000000     0          
C11      C      0.461533333333     0.946233333333     0.170950000000     0          
C11      C      0.538466666667     0.720433333333     0.420950000000     0          
C11      C      0.371800000000     0.779566666667     0.920950000000     0          
C11      C      0.628200000000     0.887100000000     0.670950000000     0          
C11      C      0.461533333333     0.946233333333     0.670950000000     0          
C11      C      0.538466666667     0.720433333333     0.920950000000     0          
C11      C      0.705133333333     0.112900000000     0.420950000000     0          
C11      C      0.961533333333     0.220433333333     0.170950000000     0          
C11      C      0.794866666667     0.279566666667     0.170950000000     0          
C11      C      0.871800000000     0.053766666667     0.420950000000     0          
C11      C      0.705133333333     0.112900000000     0.920950000000     0          
C11      C      0.961533333333     0.220433333333     0.670950000000     0          
C11      C      0.794866666667     0.279566666667     0.670950000000     0          
C11      C      0.871800000000     0.053766666667     0.920950000000     0          
C11      C      0.705133333333     0.446233333333     0.420950000000     0          
C11      C      0.961533333333     0.553766666667     0.170950000000     0          
C11      C      0.794866666667     0.612900000000     0.170950000000     0          
C11      C      0.871800000000     0.387100000000     0.420950000000     0          
C11      C      0.705133333333     0.446233333333     0.920950000000     0          
C11      C      0.961533333333     0.553766666667     0.670950000000     0          
C11      C      0.794866666667     0.612900000000     0.670950000000     0          
C11      C      0.871800000000     0.387100000000     0.920950000000     0          
C11      C      0.705133333333     0.779566666667     0.420950000000     0          
C11      C      0.961533333333     0.887100000000     0.170950000000     0          
C11      C      0.794866666667     0.946233333333     0.170950000000     0          
C11      C      0.871800000000     0.720433333333     0.420950000000     0          
C11      C      0.705133333333     0.779566666667     0.920950000000     0          
C11      C      0.961533333333     0.887100000000     0.670950000000     0          
C11      C      0.794866666667     0.946233333333     0.670950000000     0          
C11      C      0.871800000000     0.720433333333     0.920950000000     0          
O5       O      0.011500000000     0.096733333333     0.435700000000     0          
O5       O      0.321833333333     0.236600000000     0.185700000000     0          
O5       O      0.155166666667     0.263400000000     0.185700000000     0          
O5       O      0.178166666667     0.069933333333     0.435700000000     0          
O5       O      0.011500000000     0.096733333333     0.935700000000     0          
O5       O      0.321833333333     0.236600000000     0.685700000000     0          
O5       O      0.155166666667     0.263400000000     0.685700000000     0          
O5       O      0.178166666667     0.069933333333     0.935700000000     0          
O5       O      0.011500000000     0.430066666667     0.435700000000     0          
O5       O      0.321833333333     0.569933333333     0.185700000000     0          
O5       O      0.155166666667     0.596733333333     0.185700000000     0          
O5       O      0.178166666667     0.403266666667     0.435700000000     0          
O5       O      0.011500000000     0.430066666667     0.935700000000     0          
O5       O      0.321833333333     0.569933333333     0.685700000000     0          
O5       O      0.155166666667     0.596733333333     0.685700000000     0          
O5       O      0.178166666667     0.403266666667     0.935700000000     0          
O5       O      0.011500000000     0.763400000000     0.435700000000     0          
O5       O      0.321833333333     0.903266666667     0.185700000000     0          
O5       O      0.155166666667     0.930066666667     0.185700000000     0          
O5       O      0.178166666667     0.736600000000     0.435700000000     0          
O5       O      0.011500000000     0.763400000000     0.935700000000     0          
O5       O      0.321833333333     0.903266666667     0.685700000000     0          
O5       O      0.155166666667     0.930066666667     0.685700000000     0          
O5       O      0.178166666667     0.736600000000     0.935700000000     0          
O5       O      0.344833333333     0.096733333333     0.435700000000     0          
O5       O      0.655166666667     0.236600000000     0.185700000000     0          
O5       O      0.488500000000     0.263400000000     0.185700000000     0          
O5       O      0.511500000000     0.069933333333     0.435700000000     0          
O5       O      0.344833333333     0.096733333333     0.935700000000     0          
O5       O      0.655166666667     0.236600000000     0.685700000000     0          
O5       O      0.488500000000     0.263400000000     0.685700000000     0          
O5       O      0.511500000000     0.069933333333     0.935700000000     0          
O5       O      0.344833333333     0.430066666667     0.435700000000     0          
O5       O      0.655166666667     0.569933333333     0.185700000000     0          
O5       O      0.488500000000     0.596733333333     0.185700000000     0          
O5       O      0.511500000000     0.403266666667     0.435700000000     0          
O5       O      0.344833333333     0.430066666667     0.935700000000     0          
O5       O      0.655166666667     0.569933333333     0.685700000000     0          
O5       O      0.488500000000     0.596733333333     0.685700000000     0          
O5       O      0.511500000000     0.403266666667     0.935700000000     0          
O5       O      0.344833333333     0.763400000000     0.435700000000     0          
O5       O      0.655166666667     0.903266666667     0.185700000000     0          
O5       O      0.488500000000     0.930066666667     0.185700000000     0          
O5       O      0.511500000000     0.736600000000     0.435700000000     0          
O5       O      0.344833333333     0.763400000000     0.935700000000     0          
O5       O      0.655166666667     0.903266666667     0.685700000000     0          
O5       O      0.488500000000     0.930066666667     0.685700000000     0          
O5       O      0.511500000000     0.736600000000     0.935700000000     0          
O5       O      0.678166666667     0.096733333333     0.435700000000     0          
O5       O      0.988500000000     0.236600000000     0.185700000000     0          
O5       O      0.821833333333     0.263400000000     0.185700000000     0          
O5       O      0.844833333333     0.069933333333     0.435700000000     0          
O5       O      0.678166666667     0.096733333333     0.935700000000     0          
O5       O      0.988500000000     0.236600000000     0.685700000000     0          
O5       O      0.821833333333     0.263400000000     0.685700000000     0          
O5       O      0.844833333333     0.069933333333     0.935700000000     0          
O5       O      0.678166666667     0.430066666667     0.435700000000     0          
O5       O      0.988500000000     0.569933333333     0.185700000000     0          
O5       O      0.821833333333     0.596733333333     0.185700000000     0          
O5       O      0.844833333333     0.403266666667     0.435700000000     0          
O5       O      0.678166666667     0.430066666667     0.935700000000     0          
O5       O      0.988500000000     0.569933333333     0.685700000000     0          
O5       O      0.821833333333     0.596733333333     0.685700000000     0          
O5       O      0.844833333333     0.403266666667     0.935700000000     0          
O5       O      0.678166666667     0.763400000000     0.435700000000     0          
O5       O      0.988500000000     0.903266666667     0.185700000000     0          
O5       O      0.821833333333     0.930066666667     0.185700000000     0          
O5       O      0.844833333333     0.736600000000     0.435700000000     0          
O5       O      0.678166666667     0.763400000000     0.935700000000     0          
O5       O      0.988500000000     0.903266666667     0.685700000000     0          
O5       O      0.821833333333     0.930066666667     0.685700000000     0          
O5       O      0.844833333333     0.736600000000     0.935700000000     0          
O6       O      0.070100000000     0.099100000000     0.418650000000     0          
O6       O      0.263233333333     0.234233333333     0.168650000000     0          
O6       O      0.070100000000     0.099100000000     0.918650000000     0          
O6       O      0.263233333333     0.234233333333     0.668650000000     0          
O6       O      0.070100000000     0.432433333333     0.418650000000     0          
O6       O      0.263233333333     0.567566666667     0.168650000000     0          
O6       O      0.070100000000     0.432433333333     0.918650000000     0          
O6       O      0.263233333333     0.567566666667     0.668650000000     0          
O6       O      0.070100000000     0.765766666667     0.418650000000     0          
O6       O      0.263233333333     0.900900000000     0.168650000000     0          
O6       O      0.070100000000     0.765766666667     0.918650000000     0          
O6       O      0.263233333333     0.900900000000     0.668650000000     0          
O6       O      0.403433333333     0.099100000000     0.418650000000     0          
O6       O      0.596566666667     0.234233333333     0.168650000000     0          
O6       O      0.403433333333     0.099100000000     0.918650000000     0          
O6       O      0.596566666667     0.234233333333     0.668650000000     0          
O6       O      0.403433333333     0.432433333333     0.418650000000     0          
O6       O      0.596566666667     0.567566666667     0.168650000000     0          
O6       O      0.403433333333     0.432433333333     0.918650000000     0          
O6       O      0.596566666667     0.567566666667     0.668650000000     0          
O6       O      0.403433333333     0.765766666667     0.418650000000     0          
O6       O      0.596566666667     0.900900000000     0.168650000000     0          
O6       O      0.403433333333     0.765766666667     0.918650000000     0          
O6       O      0.596566666667     0.900900000000     0.668650000000     0          
O6       O      0.736766666667     0.099100000000     0.418650000000     0          
O6       O      0.929900000000     0.234233333333     0.168650000000     0          
O6       O      0.736766666667     0.099100000000     0.918650000000     0          
O6       O      0.929900000000     0.234233333333     0.668650000000     0          
O6       O      0.736766666667     0.432433333333     0.418650000000     0          
O6       O      0.929900000000     0.567566666667     0.168650000000     0          
O6       O      0.736766666667     0.432433333333     0.918650000000     0          
O6       O      0.929900000000     0.567566666667     0.668650000000     0          
O6       O      0.736766666667     0.765766666667     0.418650000000     0          
O6       O      0.929900000000     0.900900000000     0.168650000000     0          
O6       O      0.736766666667     0.765766666667     0.918650000000     0          
O6       O      0.929900000000     0.900900000000     0.668650000000     0          
C12      C      0.079666666667     0.234733333333     0.353100000000     0          
C12      C      0.253666666667     0.098600000000     0.103100000000     0          
C12      C      0.087000000000     0.068066666667     0.103100000000     0          
C12      C      0.246333333333     0.265266666667     0.353100000000     0          
C12      C      0.079666666667     0.234733333333     0.853100000000     0          
C12      C      0.253666666667     0.098600000000     0.603100000000     0          
C12      C      0.087000000000     0.068066666667     0.603100000000     0          
C12      C      0.246333333333     0.265266666667     0.853100000000     0          
C12      C      0.079666666667     0.568066666667     0.353100000000     0          
C12      C      0.253666666667     0.431933333333     0.103100000000     0          
C12      C      0.087000000000     0.401400000000     0.103100000000     0          
C12      C      0.246333333333     0.598600000000     0.353100000000     0          
C12      C      0.079666666667     0.568066666667     0.853100000000     0          
C12      C      0.253666666667     0.431933333333     0.603100000000     0          
C12      C      0.087000000000     0.401400000000     0.603100000000     0          
C12      C      0.246333333333     0.598600000000     0.853100000000     0          
C12      C      0.079666666667     0.901400000000     0.353100000000     0          
C12      C      0.253666666667     0.765266666667     0.103100000000     0          
C12      C      0.087000000000     0.734733333333     0.103100000000     0          
C12      C      0.246333333333     0.931933333333     0.353100000000     0          
C12      C      0.079666666667     0.901400000000     0.853100000000     0          
C12      C      0.253666666667     0.765266666667     0.603100000000     0          
C12      C      0.087000000000     0.734733333333     0.603100000000     0          
C12      C      0.246333333333     0.931933333333     0.853100000000     0          
C12      C      0.413000000000     0.234733333333     0.353100000000     0          
C12      C      0.587000000000     0.098600000000     0.103100000000     0          
C12      C      0.420333333333     0.068066666667     0.103100000000     0          
C12      C      0.579666666667     0.265266666667     0.353100000000     0          
C12      C      0.413000000000     0.234733333333     0.853100000000     0          
C12      C      0.587000000000     0.098600000000     0.603100000000     0          
C12      C      0.420333333333     0.068066666667     0.603100000000     0          
C12      C      0.579666666667     0.265266666667     0.853100000000     0          
C12      C      0.413000000000     0.568066666667     0.353100000000     0          
C12      C      0.587000000000     0.431933333333     0.103100000000     0          
C12      C      0.420333333333     0.401400000000     0.103100000000     0          
C12      C      0.579666666667     0.598600000000     0.353100000000     0          
C12      C      0.413000000000     0.568066666667     0.853100000000     0          
C12      C      0.587000000000     0.431933333333     0.603100000000     0          
C12      C      0.420333333333     0.401400000000     0.603100000000     0          
C12      C      0.579666666667     0.598600000000     0.853100000000     0          
C12      C      0.413000000000     0.901400000000     0.353100000000     0          
C12      C      0.587000000000     0.765266666667     0.103100000000     0          
C12      C      0.420333333333     0.734733333333     0.103100000000     0          
C12      C      0.579666666667     0.931933333333     0.353100000000     0          
C12      C      0.413000000000     0.901400000000     0.853100000000     0          
C12      C      0.587000000000     0.765266666667     0.603100000000     0          
C12      C      0.420333333333     0.734733333333     0.603100000000     0          
C12      C      0.579666666667     0.931933333333     0.853100000000     0          
C12      C      0.746333333333     0.234733333333     0.353100000000     0          
C12      C      0.920333333333     0.098600000000     0.103100000000     0          
C12      C      0.753666666667     0.068066666667     0.103100000000     0          
C12      C      0.913000000000     0.265266666667     0.353100000000     0          
C12      C      0.746333333333     0.234733333333     0.853100000000     0          
C12      C      0.920333333333     0.098600000000     0.603100000000     0          
C12      C      0.753666666667     0.068066666667     0.603100000000     0          
C12      C      0.913000000000     0.265266666667     0.853100000000     0          
C12      C      0.746333333333     0.568066666667     0.353100000000     0          
C12      C      0.920333333333     0.431933333333     0.103100000000     0          
C12      C      0.753666666667     0.401400000000     0.103100000000     0          
C12      C      0.913000000000     0.598600000000     0.353100000000     0          
C12      C      0.746333333333     0.568066666667     0.853100000000     0          
C12      C      0.920333333333     0.431933333333     0.603100000000     0          
C12      C      0.753666666667     0.401400000000     0.603100000000     0          
C12      C      0.913000000000     0.598600000000     0.853100000000     0          
C12      C      0.746333333333     0.901400000000     0.353100000000     0          
C12      C      0.920333333333     0.765266666667     0.103100000000     0          
C12      C      0.753666666667     0.734733333333     0.103100000000     0          
C12      C      0.913000000000     0.931933333333     0.353100000000     0          
C12      C      0.746333333333     0.901400000000     0.853100000000     0          
C12      C      0.920333333333     0.765266666667     0.603100000000     0          
C12      C      0.753666666667     0.734733333333     0.603100000000     0          
C12      C      0.913000000000     0.931933333333     0.853100000000     0          
O7       O      0.069400000000     0.266400000000     0.338900000000     0          
O7       O      0.263933333333     0.066933333333     0.088900000000     0          
O7       O      0.097266666667     0.099733333333     0.088900000000     0          
O7       O      0.236066666667     0.233600000000     0.338900000000     0          
O7       O      0.069400000000     0.266400000000     0.838900000000     0          
O7       O      0.263933333333     0.066933333333     0.588900000000     0          
O7       O      0.097266666667     0.099733333333     0.588900000000     0          
O7       O      0.236066666667     0.233600000000     0.838900000000     0          
O7       O      0.069400000000     0.599733333333     0.338900000000     0          
O7       O      0.263933333333     0.400266666667     0.088900000000     0          
O7       O      0.097266666667     0.433066666667     0.088900000000     0          
O7       O      0.236066666667     0.566933333333     0.338900000000     0          
O7       O      0.069400000000     0.599733333333     0.838900000000     0          
O7       O      0.263933333333     0.400266666667     0.588900000000     0          
O7       O      0.097266666667     0.433066666667     0.588900000000     0          
O7       O      0.236066666667     0.566933333333     0.838900000000     0          
O7       O      0.069400000000     0.933066666667     0.338900000000     0          
O7       O      0.263933333333     0.733600000000     0.088900000000     0          
O7       O      0.097266666667     0.766400000000     0.088900000000     0          
O7       O      0.236066666667     0.900266666667     0.338900000000     0          
O7       O      0.069400000000     0.933066666667     0.838900000000     0          
O7       O      0.263933333333     0.733600000000     0.588900000000     0          
O7       O      0.097266666667     0.766400000000     0.588900000000     0          
O7       O      0.236066666667     0.900266666667     0.838900000000     0          
O7       O      0.402733333333     0.266400000000     0.338900000000     0          
O7       O      0.597266666667     0.066933333333     0.088900000000     0          
O7       O      0.430600000000     0.099733333333     0.088900000000     0          
O7       O      0.569400000000     0.233600000000     0.338900000000     0          
O7       O      0.402733333333     0.266400000000     0.838900000000     0          
O7       O      0.597266666667     0.066933333333     0.588900000000     0          
O7       O      0.430600000000     0.099733333333     0.588900000000     0          
O7       O      0.569400000000     0.233600000000     0.838900000000     0          
O7       O      0.402733333333     0.599733333333     0.338900000000     0          
O7       O      0.597266666667     0.400266666667     0.088900000000     0          
O7       O      0.430600000000     0.433066666667     0.088900000000     0          
O7       O      0.569400000000     0.566933333333     0.338900000000     0          
O7       O      0.402733333333     0.599733333333     0.838900000000     0          
O7       O      0.597266666667     0.400266666667     0.588900000000     0          
O7       O      0.430600000000     0.433066666667     0.588900000000     0          
O7       O      0.569400000000     0.566933333333     0.838900000000     0          
O7       O      0.402733333333     0.933066666667     0.338900000000     0          
O7       O      0.597266666667     0.733600000000     0.088900000000     0          
O7       O      0.430600000000     0.766400000000     0.088900000000     0          
O7       O      0.569400000000     0.900266666667     0.338900000000     0          
O7       O      0.402733333333     0.933066666667     0.838900000000     0          
O7       O      0.597266666667     0.733600000000     0.588900000000     0          
O7       O      0.430600000000     0.766400000000     0.588900000000     0          
O7       O      0.569400000000     0.900266666667     0.838900000000     0          
O7       O      0.736066666667     0.266400000000     0.338900000000     0          
O7       O      0.930600000000     0.066933333333     0.088900000000     0          
O7       O      0.763933333333     0.099733333333     0.088900000000     0          
O7       O      0.902733333333     0.233600000000     0.338900000000     0          
O7       O      0.736066666667     0.266400000000     0.838900000000     0          
O7       O      0.930600000000     0.066933333333     0.588900000000     0          
O7       O      0.763933333333     0.099733333333     0.588900000000     0          
O7       O      0.902733333333     0.233600000000     0.838900000000     0          
O7       O      0.736066666667     0.599733333333     0.338900000000     0          
O7       O      0.930600000000     0.400266666667     0.088900000000     0          
O7       O      0.763933333333     0.433066666667     0.088900000000     0          
O7       O      0.902733333333     0.566933333333     0.338900000000     0          
O7       O      0.736066666667     0.599733333333     0.838900000000     0          
O7       O      0.930600000000     0.400266666667     0.588900000000     0          
O7       O      0.763933333333     0.433066666667     0.588900000000     0          
O7       O      0.902733333333     0.566933333333     0.838900000000     0          
O7       O      0.736066666667     0.933066666667     0.338900000000     0          
O7       O      0.930600000000     0.733600000000     0.088900000000     0          
O7       O      0.763933333333     0.766400000000     0.088900000000     0          
O7       O      0.902733333333     0.900266666667     0.338900000000     0          
O7       O      0.736066666667     0.933066666667     0.838900000000     0          
O7       O      0.930600000000     0.733600000000     0.588900000000     0          
O7       O      0.763933333333     0.766400000000     0.588900000000     0          
O7       O      0.902733333333     0.900266666667     0.838900000000     0          
O8       O      0.112400000000     0.222366666667     0.355300000000     0          
O8       O      0.220933333333     0.110966666667     0.105300000000     0          
O8       O      0.112400000000     0.222366666667     0.855300000000     0          
O8       O      0.220933333333     0.110966666667     0.605300000000     0          
O8       O      0.112400000000     0.555700000000     0.355300000000     0          
O8       O      0.220933333333     0.444300000000     0.105300000000     0          
O8       O      0.112400000000     0.555700000000     0.855300000000     0          
O8       O      0.220933333333     0.444300000000     0.605300000000     0          
O8       O      0.112400000000     0.889033333333     0.355300000000     0          
O8       O      0.220933333333     0.777633333333     0.105300000000     0          
O8       O      0.112400000000     0.889033333333     0.855300000000     0          
O8       O      0.220933333333     0.777633333333     0.605300000000     0          
O8       O      0.445733333333     0.222366666667     0.355300000000     0          
O8       O      0.554266666667     0.110966666667     0.105300000000     0          
O8       O      0.445733333333     0.222366666667     0.855300000000     0          
O8       O      0.554266666667     0.110966666667     0.605300000000     0          
O8       O      0.445733333333     0.555700000000     0.355300000000     0          
O8       O      0.554266666667     0.444300000000     0.105300000000     0          
O8       O      0.445733333333     0.555700000000     0.855300000000     0          
O8       O      0.554266666667     0.444300000000     0.605300000000     0          
O8       O      0.445733333333     0.889033333333     0.355300000000     0          
O8       O      0.554266666667     0.777633333333     0.105300000000     0          
O8       O      0.445733333333     0.889033333333     0.855300000000     0          
O8       O      0.554266666667     0.777633333333     0.605300000000     0          
O8       O      0.779066666667     0.222366666667     0.355300000000     0          
O8       O      0.887600000000     0.110966666667     0.105300000000     0          
O8       O      0.779066666667     0.222366666667     0.855300000000     0          
O8       O      0.887600000000     0.110966666667     0.605300000000     0          
O8       O      0.779066666667     0.555700000000     0.355300000000     0          
O8       O      0.887600000000     0.444300000000     0.105300000000     0          
O8       O      0.779066666667     0.555700000000     0.855300000000     0          
O8       O      0.887600000000     0.444300000000     0.605300000000     0          
O8       O      0.779066666667     0.889033333333     0.355300000000     0          
O8       O      0.887600000000     0.777633333333     0.105300000000     0          
O8       O      0.779066666667     0.889033333333     0.855300000000     0          
O8       O      0.887600000000     0.777633333333     0.605300000000     0          
C13      C      0.037600000000     0.274000000000     0.254400000000     0          
C13      C      0.295733333333     0.059333333333     0.004400000000     0          
C13      C      0.129066666667     0.107333333333     0.004400000000     0          
C13      C      0.204266666667     0.226000000000     0.254400000000     0          
C13      C      0.037600000000     0.274000000000     0.754400000000     0          
C13      C      0.295733333333     0.059333333333     0.504400000000     0          
C13      C      0.129066666667     0.107333333333     0.504400000000     0          
C13      C      0.204266666667     0.226000000000     0.754400000000     0          
C13      C      0.037600000000     0.607333333333     0.254400000000     0          
C13      C      0.295733333333     0.392666666667     0.004400000000     0          
C13      C      0.129066666667     0.440666666667     0.004400000000     0          
C13      C      0.204266666667     0.559333333333     0.254400000000     0          
C13      C      0.037600000000     0.607333333333     0.754400000000     0          
C13      C      0.295733333333     0.392666666667     0.504400000000     0          
C13      C      0.129066666667     0.440666666667     0.504400000000     0          
C13      C      0.204266666667     0.559333333333     0.754400000000     0          
C13      C      0.037600000000     0.940666666667     0.254400000000     0          
C13      C      0.295733333333     0.726000000000     0.004400000000     0          
C13      C      0.129066666667     0.774000000000     0.004400000000     0          
C13      C      0.204266666667     0.892666666667     0.254400000000     0          
C13      C      0.037600000000     0.940666666667     0.754400000000     0          
C13      C      0.295733333333     0.726000000000     0.504400000000     0          
C13      C      0.129066666667     0.774000000000     0.504400000000     0          
C13      C      0.204266666667     0.892666666667     0.754400000000     0          
C13      C      0.370933333333     0.274000000000     0.254400000000     0          
C13      C      0.629066666667     0.059333333333     0.004400000000     0          
C13      C      0.462400000000     0.107333333333     0.004400000000     0          
C13      C      0.537600000000     0.226000000000     0.254400000000     0          
C13      C      0.370933333333     0.274000000000     0.754400000000     0          
C13      C      0.629066666667     0.059333333333     0.504400000000     0          
C13      C      0.462400000000     0.107333333333     0.504400000000     0          
C13      C      0.537600000000     0.226000000000     0.754400000000     0          
C13      C      0.370933333333     0.607333333333     0.254400000000     0          
C13      C      0.629066666667     0.392666666667     0.004400000000     0          
C13      C      0.462400000000     0.440666666667     0.004400000000     0          
C13      C      0.537600000000     0.559333333333     0.254400000000     0          
C13      C      0.370933333333     0.607333333333     0.754400000000     0          
C13      C      0.629066666667     0.392666666667     0.504400000000     0          
C13      C      0.462400000000     0.440666666667     0.504400000000     0          
C13      C      0.537600000000     0.559333333333     0.754400000000     0          
C13      C      0.370933333333     0.940666666667     0.254400000000     0          
C13      C      0.629066666667     0.726000000000     0.004400000000     0          
C13      C      0.462400000000     0.774000000000     0.004400000000     0          
C13      C      0.537600000000     0.892666666667     0.254400000000     0          
C13      C      0.370933333333     0.940666666667     0.754400000000     0          
C13      C      0.629066666667     0.726000000000     0.504400000000     0          
C13      C      0.462400000000     0.774000000000     0.504400000000     0          
C13      C      0.537600000000     0.892666666667     0.754400000000     0          
C13      C      0.704266666667     0.274000000000     0.254400000000     0          
C13      C      0.962400000000     0.059333333333     0.004400000000     0          
C13      C      0.795733333333     0.107333333333     0.004400000000     0          
C13      C      0.870933333333     0.226000000000     0.254400000000     0          
C13      C      0.704266666667     0.274000000000     0.754400000000     0          
C13      C      0.962400000000     0.059333333333     0.504400000000     0          
C13      C      0.795733333333     0.107333333333     0.504400000000     0          
C13      C      0.870933333333     0.226000000000     0.754400000000     0          
C13      C      0.704266666667     0.607333333333     0.254400000000     0          
C13      C      0.962400000000     0.392666666667     0.004400000000     0          
C13      C      0.795733333333     0.440666666667     0.004400000000     0          
C13      C      0.870933333333     0.559333333333     0.254400000000     0          
C13      C      0.704266666667     0.607333333333     0.754400000000     0          
C13      C      0.962400000000     0.392666666667     0.504400000000     0          
C13      C      0.795733333333     0.440666666667     0.504400000000     0          
C13      C      0.870933333333     0.559333333333     0.754400000000     0          
C13      C      0.704266666667     0.940666666667     0.254400000000     0          
C13      C      0.962400000000     0.726000000000     0.004400000000     0          
C13      C      0.795733333333     0.774000000000     0.004400000000     0          
C13      C      0.870933333333     0.892666666667     0.254400000000     0          
C13      C      0.704266666667     0.940666666667     0.754400000000     0          
C13      C      0.962400000000     0.726000000000     0.504400000000     0          
C13      C      0.795733333333     0.774000000000     0.504400000000     0          
C13      C      0.870933333333     0.892666666667     0.754400000000     0          
O9       O      0.038233333333     0.302933333333     0.275850000000     0          
O9       O      0.295100000000     0.030400000000     0.025850000000     0          
O9       O      0.128433333333     0.136266666667     0.025850000000     0          
O9       O      0.204900000000     0.197066666667     0.275850000000     0          
O9       O      0.038233333333     0.302933333333     0.775850000000     0          
O9       O      0.295100000000     0.030400000000     0.525850000000     0          
O9       O      0.128433333333     0.136266666667     0.525850000000     0          
O9       O      0.204900000000     0.197066666667     0.775850000000     0          
O9       O      0.038233333333     0.636266666667     0.275850000000     0          
O9       O      0.295100000000     0.363733333333     0.025850000000     0          
O9       O      0.128433333333     0.469600000000     0.025850000000     0          
O9       O      0.204900000000     0.530400000000     0.275850000000     0          
O9       O      0.038233333333     0.636266666667     0.775850000000     0          
O9       O      0.295100000000     0.363733333333     0.525850000000     0          
O9       O      0.128433333333     0.469600000000     0.525850000000     0          
O9       O      0.204900000000     0.530400000000     0.775850000000     0          
O9       O      0.038233333333     0.969600000000     0.275850000000     0          
O9       O      0.295100000000     0.697066666667     0.025850000000     0          
O9       O      0.128433333333     0.802933333333     0.025850000000     0          
O9       O      0.204900000000     0.863733333333     0.275850000000     0          
O9       O      0.038233333333     0.969600000000     0.775850000000     0          
O9       O      0.295100000000     0.697066666667     0.525850000000     0          
O9       O      0.128433333333     0.802933333333     0.525850000000     0          
O9       O      0.204900000000     0.863733333333     0.775850000000     0          
O9       O      0.371566666667     0.302933333333     0.275850000000     0          
O9       O      0.628433333333     0.030400000000     0.025850000000     0          
O9       O      0.461766666667     0.136266666667     0.025850000000     0          
O9       O      0.538233333333     0.197066666667     0.275850000000     0          
O9       O      0.371566666667     0.302933333333     0.775850000000     0          
O9       O      0.628433333333     0.030400000000     0.525850000000     0          
O9       O      0.461766666667     0.136266666667     0.525850000000     0          
O9       O      0.538233333333     0.197066666667     0.775850000000     0          
O9       O      0.371566666667     0.636266666667     0.275850000000     0          
O9       O      0.628433333333     0.363733333333     0.025850000000     0          
O9       O      0.461766666667     0.469600000000     0.025850000000     0          
O9       O      0.538233333333     0.530400000000     0.275850000000     0          
O9       O      0.371566666667     0.636266666667     0.775850000000     0          
O9       O      0.628433333333     0.363733333333     0.525850000000     0          
O9       O      0.461766666667     0.469600000000     0.525850000000     0          
O9       O      0.538233333333     0.530400000000     0.775850000000     0          
O9       O      0.371566666667     0.969600000000     0.275850000000     0          
O9       O      0.628433333333     0.697066666667     0.025850000000     0          
O9       O      0.461766666667     0.802933333333     0.025850000000     0          
O9       O      0.538233333333     0.863733333333     0.275850000000     0          
O9       O      0.371566666667     0.969600000000     0.775850000000     0          
O9       O      0.628433333333     0.697066666667     0.525850000000     0          
O9       O      0.461766666667     0.802933333333     0.525850000000     0          
O9       O      0.538233333333     0.863733333333     0.775850000000     0          
O9       O      0.704900000000     0.302933333333     0.275850000000     0          
O9       O      0.961766666667     0.030400000000     0.025850000000     0          
O9       O      0.795100000000     0.136266666667     0.025850000000     0          
O9       O      0.871566666667     0.197066666667     0.275850000000     0          
O9       O      0.704900000000     0.302933333333     0.775850000000     0          
O9       O      0.961766666667     0.030400000000     0.525850000000     0          
O9       O      0.795100000000     0.136266666667     0.525850000000     0          
O9       O      0.871566666667     0.197066666667     0.775850000000     0          
O9       O      0.704900000000     0.636266666667     0.275850000000     0          
O9       O      0.961766666667     0.363733333333     0.025850000000     0          
O9       O      0.795100000000     0.469600000000     0.025850000000     0          
O9       O      0.871566666667     0.530400000000     0.275850000000     0          
O9       O      0.704900000000     0.636266666667     0.775850000000     0          
O9       O      0.961766666667     0.363733333333     0.525850000000     0          
O9       O      0.795100000000     0.469600000000     0.525850000000     0          
O9       O      0.871566666667     0.530400000000     0.775850000000     0          
O9       O      0.704900000000     0.969600000000     0.275850000000     0          
O9       O      0.961766666667     0.697066666667     0.025850000000     0          
O9       O      0.795100000000     0.802933333333     0.025850000000     0          
O9       O      0.871566666667     0.863733333333     0.275850000000     0          
O9       O      0.704900000000     0.969600000000     0.775850000000     0          
O9       O      0.961766666667     0.697066666667     0.525850000000     0          
O9       O      0.795100000000     0.802933333333     0.525850000000     0          
O9       O      0.871566666667     0.863733333333     0.775850000000     0          
O10      O      0.049933333333     0.275433333333     0.224750000000     0          
O10      O      0.116733333333     0.108766666667     0.474750000000     0          
O10      O      0.049933333333     0.275433333333     0.724750000000     0          
O10      O      0.116733333333     0.108766666667     0.974750000000     0          
O10      O      0.049933333333     0.608766666667     0.224750000000     0          
O10      O      0.116733333333     0.442100000000     0.474750000000     0          
O10      O      0.049933333333     0.608766666667     0.724750000000     0          
O10      O      0.116733333333     0.442100000000     0.974750000000     0          
O10      O      0.049933333333     0.942100000000     0.224750000000     0          
O10      O      0.116733333333     0.775433333333     0.474750000000     0          
O10      O      0.049933333333     0.942100000000     0.724750000000     0          
O10      O      0.116733333333     0.775433333333     0.974750000000     0          
O10      O      0.383266666667     0.275433333333     0.224750000000     0          
O10      O      0.450066666667     0.108766666667     0.474750000000     0          
O10      O      0.383266666667     0.275433333333     0.724750000000     0          
O10      O      0.450066666667     0.108766666667     0.974750000000     0          
O10      O      0.383266666667     0.608766666667     0.224750000000     0          
O10      O      0.450066666667     0.442100000000     0.474750000000     0          
O10      O      0.383266666667     0.608766666667     0.724750000000     0          
O10      O      0.450066666667     0.442100000000     0.974750000000     0          
O10      O      0.383266666667     0.942100000000     0.224750000000     0          
O10      O      0.450066666667     0.775433333333     0.474750000000     0          
O10      O      0.383266666667     0.942100000000     0.724750000000     0          
O10      O      0.450066666667     0.775433333333     0.974750000000     0          
O10      O      0.716600000000     0.275433333333     0.224750000000     0          
O10      O      0.783400000000     0.108766666667     0.474750000000     0          
O10      O      0.716600000000     0.275433333333     0.724750000000     0          
O10      O      0.783400000000     0.108766666667     0.974750000000     0          
O10      O      0.716600000000     0.608766666667     0.224750000000     0          
O10      O      0.783400000000     0.442100000000     0.474750000000     0          
O10      O      0.716600000000     0.608766666667     0.724750000000     0          
O10      O      0.783400000000     0.442100000000     0.974750000000     0          
O10      O      0.716600000000     0.942100000000     0.224750000000     0          
O10      O      0.783400000000     0.775433333333     0.474750000000     0          
O10      O      0.716600000000     0.942100000000     0.724750000000     0          
O10      O      0.783400000000     0.775433333333     0.974750000000     0          
C14      C      0.020533333333     0.233600000000     0.266000000000     0          
C14      C      0.312800000000     0.099733333333     0.016000000000     0          
C14      C      0.146133333333     0.066933333333     0.016000000000     0          
C14      C      0.187200000000     0.266400000000     0.266000000000     0          
C14      C      0.020533333333     0.233600000000     0.766000000000     0          
C14      C      0.312800000000     0.099733333333     0.516000000000     0          
C14      C      0.146133333333     0.066933333333     0.516000000000     0          
C14      C      0.187200000000     0.266400000000     0.766000000000     0          
C14      C      0.020533333333     0.566933333333     0.266000000000     0          
C14      C      0.312800000000     0.433066666667     0.016000000000     0          
C14      C      0.146133333333     0.400266666667     0.016000000000     0          
C14      C      0.187200000000     0.599733333333     0.266000000000     0          
C14      C      0.020533333333     0.566933333333     0.766000000000     0          
C14      C      0.312800000000     0.433066666667     0.516000000000     0          
C14      C      0.146133333333     0.400266666667     0.516000000000     0          
C14      C      0.187200000000     0.599733333333     0.766000000000     0          
C14      C      0.020533333333     0.900266666667     0.266000000000     0          
C14      C      0.312800000000     0.766400000000     0.016000000000     0          
C14      C      0.146133333333     0.733600000000     0.016000000000     0          
C14      C      0.187200000000     0.933066666667     0.266000000000     0          
C14      C      0.020533333333     0.900266666667     0.766000000000     0          
C14      C      0.312800000000     0.766400000000     0.516000000000     0          
C14      C      0.146133333333     0.733600000000     0.516000000000     0          
C14      C      0.187200000000     0.933066666667     0.766000000000     0          
C14      C      0.353866666667     0.233600000000     0.266000000000     0          
C14      C      0.646133333333     0.099733333333     0.016000000000     0          
C14      C      0.479466666667     0.066933333333     0.016000000000     0          
C14      C      0.520533333333     0.266400000000     0.266000000000     0          
C14      C      0.353866666667     0.233600000000     0.766000000000     0          
C14      C      0.646133333333     0.099733333333     0.516000000000     0          
C14      C      0.479466666667     0.066933333333     0.516000000000     0          
C14      C      0.520533333333     0.266400000000     0.766000000000     0          
C14      C      0.353866666667     0.566933333333     0.266000000000     0          
C14      C      0.646133333333     0.433066666667     0.016000000000     0          
C14      C      0.479466666667     0.400266666667     0.016000000000     0          
C14      C      0.520533333333     0.599733333333     0.266000000000     0          
C14      C      0.353866666667     0.566933333333     0.766000000000     0          
C14      C      0.646133333333     0.433066666667     0.516000000000     0          
C14      C      0.479466666667     0.400266666667     0.516000000000     0          
C14      C      0.520533333333     0.599733333333     0.766000000000     0          
C14      C      0.353866666667     0.900266666667     0.266000000000     0          
C14      C      0.646133333333     0.766400000000     0.016000000000     0          
C14      C      0.479466666667     0.733600000000     0.016000000000     0          
C14      C      0.520533333333     0.933066666667     0.266000000000     0          
C14      C      0.353866666667     0.900266666667     0.766000000000     0          
C14      C      0.646133333333     0.766400000000     0.516000000000     0          
C14      C      0.479466666667     0.733600000000     0.516000000000     0          
C14      C      0.520533333333     0.933066666667     0.766000000000     0          
C14      C      0.687200000000     0.233600000000     0.266000000000     0          
C14      C      0.979466666667     0.099733333333     0.016000000000     0          
C14      C      0.812800000000     0.066933333333     0.016000000000     0          
C14      C      0.853866666667     0.266400000000     0.266000000000     0          
C14      C      0.687200000000     0.233600000000     0.766000000000     0          
C14      C      0.979466666667     0.099733333333     0.516000000000     0          
C14      C      0.812800000000     0.066933333333     0.516000000000     0          
C14      C      0.853866666667     0.266400000000     0.766000000000     0          
C14      C      0.687200000000     0.566933333333     0.266000000000     0          
C14      C      0.979466666667     0.433066666667     0.016000000000     0          
C14      C      0.812800000000     0.400266666667     0.016000000000     0          
C14      C      0.853866666667     0.599733333333     0.266000000000     0          
C14      C      0.687200000000     0.566933333333     0.766000000000     0          
C14      C      0.979466666667     0.433066666667     0.516000000000     0          
C14      C      0.812800000000     0.400266666667     0.516000000000     0          
C14      C      0.853866666667     0.599733333333     0.766000000000     0          
C14      C      0.687200000000     0.900266666667     0.266000000000     0          
C14      C      0.979466666667     0.766400000000     0.016000000000     0          
C14      C      0.812800000000     0.733600000000     0.016000000000     0          
C14      C      0.853866666667     0.933066666667     0.266000000000     0          
C14      C      0.687200000000     0.900266666667     0.766000000000     0          
C14      C      0.979466666667     0.766400000000     0.516000000000     0          
C14      C      0.812800000000     0.733600000000     0.516000000000     0          
C14      C      0.853866666667     0.933066666667     0.766000000000     0          
O11      O      0.001900000000     0.234700000000     0.293450000000     0          
O11      O      0.331433333333     0.098633333333     0.043450000000     0          
O11      O      0.164766666667     0.068033333333     0.043450000000     0          
O11      O      0.168566666667     0.265300000000     0.293450000000     0          
O11      O      0.001900000000     0.234700000000     0.793450000000     0          
O11      O      0.331433333333     0.098633333333     0.543450000000     0          
O11      O      0.164766666667     0.068033333333     0.543450000000     0          
O11      O      0.168566666667     0.265300000000     0.793450000000     0          
O11      O      0.001900000000     0.568033333333     0.293450000000     0          
O11      O      0.331433333333     0.431966666667     0.043450000000     0          
O11      O      0.164766666667     0.401366666667     0.043450000000     0          
O11      O      0.168566666667     0.598633333333     0.293450000000     0          
O11      O      0.001900000000     0.568033333333     0.793450000000     0          
O11      O      0.331433333333     0.431966666667     0.543450000000     0          
O11      O      0.164766666667     0.401366666667     0.543450000000     0          
O11      O      0.168566666667     0.598633333333     0.793450000000     0          
O11      O      0.001900000000     0.901366666667     0.293450000000     0          
O11      O      0.331433333333     0.765300000000     0.043450000000     0          
O11      O      0.164766666667     0.734700000000     0.043450000000     0          
O11      O      0.168566666667     0.931966666667     0.293450000000     0          
O11      O      0.001900000000     0.901366666667     0.793450000000     0          
O11      O      0.331433333333     0.765300000000     0.543450000000     0          
O11      O      0.164766666667     0.734700000000     0.543450000000     0          
O11      O      0.168566666667     0.931966666667     0.793450000000     0          
O11      O      0.335233333333     0.234700000000     0.293450000000     0          
O11      O      0.664766666667     0.098633333333     0.043450000000     0          
O11      O      0.498100000000     0.068033333333     0.043450000000     0          
O11      O      0.501900000000     0.265300000000     0.293450000000     0          
O11      O      0.335233333333     0.234700000000     0.793450000000     0          
O11      O      0.664766666667     0.098633333333     0.543450000000     0          
O11      O      0.498100000000     0.068033333333     0.543450000000     0          
O11      O      0.501900000000     0.265300000000     0.793450000000     0          
O11      O      0.335233333333     0.568033333333     0.293450000000     0          
O11      O      0.664766666667     0.431966666667     0.043450000000     0          
O11      O      0.498100000000     0.401366666667     0.043450000000     0          
O11      O      0.501900000000     0.598633333333     0.293450000000     0          
O11      O      0.335233333333     0.568033333333     0.793450000000     0          
O11      O      0.664766666667     0.431966666667     0.543450000000     0          
O11      O      0.498100000000     0.401366666667     0.543450000000     0          
O11      O      0.501900000000     0.598633333333     0.793450000000     0          
O11      O      0.335233333333     0.901366666667     0.293450000000     0          
O11      O      0.664766666667     0.765300000000     0.043450000000     0          
O11      O      0.498100000000     0.734700000000     0.043450000000     0          
O11      O      0.501900000000     0.931966666667     0.293450000000     0          
O11      O      0.335233333333     0.901366666667     0.793450000000     0          
O11      O      0.664766666667     0.765300000000     0.543450000000     0          
O11      O      0.498100000000     0.734700000000     0.543450000000     0          
O11      O      0.501900000000     0.931966666667     0.793450000000     0          
O11      O      0.668566666667     0.234700000000     0.293450000000     0          
O11      O      0.998100000000     0.098633333333     0.043450000000     0          
O11      O      0.831433333333     0.068033333333     0.043450000000     0          
O11      O      0.835233333333     0.265300000000     0.293450000000     0          
O11      O      0.668566666667     0.234700000000     0.793450000000     0          
O11      O      0.998100000000     0.098633333333     0.543450000000     0          
O11      O      0.831433333333     0.068033333333     0.543450000000     0          
O11      O      0.835233333333     0.265300000000     0.793450000000     0          
O11      O      0.668566666667     0.568033333333     0.293450000000     0          
O11      O      0.998100000000     0.431966666667     0.043450000000     0          
O11      O      0.831433333333     0.401366666667     0.043450000000     0          
O11      O      0.835233333333     0.598633333333     0.293450000000     0          
O11      O      0.668566666667     0.568033333333     0.793450000000     0          
O11      O      0.998100000000     0.431966666667     0.543450000000     0          
O11      O      0.831433333333     0.401366666667     0.543450000000     0          
O11      O      0.835233333333     0.598633333333     0.793450000000     0          
O11      O      0.668566666667     0.901366666667     0.293450000000     0          
O11      O      0.998100000000     0.765300000000     0.043450000000     0          
O11      O      0.831433333333     0.734700000000     0.043450000000     0          
O11      O      0.835233333333     0.931966666667     0.293450000000     0          
O11      O      0.668566666667     0.901366666667     0.793450000000     0          
O11      O      0.998100000000     0.765300000000     0.543450000000     0          
O11      O      0.831433333333     0.734700000000     0.543450000000     0          
O11      O      0.835233333333     0.931966666667     0.793450000000     0          
O12      O      0.025133333333     0.204233333333     0.247750000000     0          
O12      O      0.141533333333     0.037566666667     0.497750000000     0          
O12      O      0.025133333333     0.204233333333     0.747750000000     0          
O12      O      0.141533333333     0.037566666667     0.997750000000     0          
O12      O      0.025133333333     0.537566666667     0.247750000000     0          
O12      O      0.141533333333     0.370900000000     0.497750000000     0          
O12      O      0.025133333333     0.537566666667     0.747750000000     0          
O12      O      0.141533333333     0.370900000000     0.997750000000     0          
O12      O      0.025133333333     0.870900000000     0.247750000000     0          
O12      O      0.141533333333     0.704233333333     0.497750000000     0          
O12      O      0.025133333333     0.870900000000     0.747750000000     0          
O12      O      0.141533333333     0.704233333333     0.997750000000     0          
O12      O      0.358466666667     0.204233333333     0.247750000000     0          
O12      O      0.474866666667     0.037566666667     0.497750000000     0          
O12      O      0.358466666667     0.204233333333     0.747750000000     0          
O12      O      0.474866666667     0.037566666667     0.997750000000     0          
O12      O      0.358466666667     0.537566666667     0.247750000000     0          
O12      O      0.474866666667     0.370900000000     0.497750000000     0          
O12      O      0.358466666667     0.537566666667     0.747750000000     0          
O12      O      0.474866666667     0.370900000000     0.997750000000     0          
O12      O      0.358466666667     0.870900000000     0.247750000000     0          
O12      O      0.474866666667     0.704233333333     0.497750000000     0          
O12      O      0.358466666667     0.870900000000     0.747750000000     0          
O12      O      0.474866666667     0.704233333333     0.997750000000     0          
O12      O      0.691800000000     0.204233333333     0.247750000000     0          
O12      O      0.808200000000     0.037566666667     0.497750000000     0          
O12      O      0.691800000000     0.204233333333     0.747750000000     0          
O12      O      0.808200000000     0.037566666667     0.997750000000     0          
O12      O      0.691800000000     0.537566666667     0.247750000000     0          
O12      O      0.808200000000     0.370900000000     0.497750000000     0          
O12      O      0.691800000000     0.537566666667     0.747750000000     0          
O12      O      0.808200000000     0.370900000000     0.997750000000     0          
O12      O      0.691800000000     0.870900000000     0.247750000000     0          
O12      O      0.808200000000     0.704233333333     0.497750000000     0          
O12      O      0.691800000000     0.870900000000     0.747750000000     0          
O12      O      0.808200000000     0.704233333333     0.997750000000     0          
La3      La     0.053196666667     0.211943333333     0.189320000000     0          
La3      La     0.053196666667     0.211943333333     0.689320000000     0          
La3      La     0.053196666667     0.545276666667     0.189320000000     0          
La3      La     0.053196666667     0.545276666667     0.689320000000     0          
La3      La     0.053196666667     0.878610000000     0.189320000000     0          
La3      La     0.053196666667     0.878610000000     0.689320000000     0          
La3      La     0.386530000000     0.211943333333     0.189320000000     0          
La3      La     0.386530000000     0.211943333333     0.689320000000     0          
La3      La     0.386530000000     0.545276666667     0.189320000000     0          
La3      La     0.386530000000     0.545276666667     0.689320000000     0          
La3      La     0.386530000000     0.878610000000     0.189320000000     0          
La3      La     0.386530000000     0.878610000000     0.689320000000     0          
La3      La     0.719863333333     0.211943333333     0.189320000000     0          
La3      La     0.719863333333     0.211943333333     0.689320000000     0          
La3      La     0.719863333333     0.545276666667     0.189320000000     0          
La3      La     0.719863333333     0.545276666667     0.689320000000     0          
La3      La     0.719863333333     0.878610000000     0.189320000000     0          
La3      La     0.719863333333     0.878610000000     0.689320000000     0          
La4      La     0.113470000000     0.045276666667     0.439320000000     0          
La4      La     0.219863333333     0.288056666667     0.189320000000     0          
La4      La     0.113470000000     0.045276666667     0.939320000000     0          
La4      La     0.219863333333     0.288056666667     0.689320000000     0          
La4      La     0.113470000000     0.378610000000     0.439320000000     0          
La4      La     0.219863333333     0.621390000000     0.189320000000     0          
La4      La     0.113470000000     0.378610000000     0.939320000000     0          
La4      La     0.219863333333     0.621390000000     0.689320000000     0          
La4      La     0.113470000000     0.711943333333     0.439320000000     0          
La4      La     0.219863333333     0.954723333333     0.189320000000     0          
La4      La     0.113470000000     0.711943333333     0.939320000000     0          
La4      La     0.219863333333     0.954723333333     0.689320000000     0          
La4      La     0.446803333333     0.045276666667     0.439320000000     0          
La4      La     0.553196666667     0.288056666667     0.189320000000     0          
La4      La     0.446803333333     0.045276666667     0.939320000000     0          
La4      La     0.553196666667     0.288056666667     0.689320000000     0          
La4      La     0.446803333333     0.378610000000     0.439320000000     0          
La4      La     0.553196666667     0.621390000000     0.189320000000     0          
La4      La     0.446803333333     0.378610000000     0.939320000000     0          
La4      La     0.553196666667     0.621390000000     0.689320000000     0          
La4      La     0.446803333333     0.711943333333     0.439320000000     0          
La4      La     0.553196666667     0.954723333333     0.189320000000     0          
La4      La     0.446803333333     0.711943333333     0.939320000000     0          
La4      La     0.553196666667     0.954723333333     0.689320000000     0          
La4      La     0.780136666667     0.045276666667     0.439320000000     0          
La4      La     0.886530000000     0.288056666667     0.189320000000     0          
La4      La     0.780136666667     0.045276666667     0.939320000000     0          
La4      La     0.886530000000     0.288056666667     0.689320000000     0          
La4      La     0.780136666667     0.378610000000     0.439320000000     0          
La4      La     0.886530000000     0.621390000000     0.189320000000     0          
La4      La     0.780136666667     0.378610000000     0.939320000000     0          
La4      La     0.886530000000     0.621390000000     0.689320000000     0          
La4      La     0.780136666667     0.711943333333     0.439320000000     0          
La4      La     0.886530000000     0.954723333333     0.189320000000     0          
La4      La     0.780136666667     0.711943333333     0.939320000000     0          
La4      La     0.886530000000     0.954723333333     0.689320000000     0          
La6      La     0.172690000000     0.205470000000     0.332435000000     0          
La6      La     0.160643333333     0.127863333333     0.082435000000     0          
La6      La     0.172690000000     0.205470000000     0.832435000000     0          
La6      La     0.160643333333     0.127863333333     0.582435000000     0          
La6      La     0.172690000000     0.538803333333     0.332435000000     0          
La6      La     0.160643333333     0.461196666667     0.082435000000     0          
La6      La     0.172690000000     0.538803333333     0.832435000000     0          
La6      La     0.160643333333     0.461196666667     0.582435000000     0          
La6      La     0.172690000000     0.872136666667     0.332435000000     0          
La6      La     0.160643333333     0.794530000000     0.082435000000     0          
La6      La     0.172690000000     0.872136666667     0.832435000000     0          
La6      La     0.160643333333     0.794530000000     0.582435000000     0          
La6      La     0.506023333333     0.205470000000     0.332435000000     0          
La6      La     0.493976666667     0.127863333333     0.082435000000     0          
La6      La     0.506023333333     0.205470000000     0.832435000000     0          
La6      La     0.493976666667     0.127863333333     0.582435000000     0          
La6      La     0.506023333333     0.538803333333     0.332435000000     0          
La6      La     0.493976666667     0.461196666667     0.082435000000     0          
La6      La     0.506023333333     0.538803333333     0.832435000000     0          
La6      La     0.493976666667     0.461196666667     0.582435000000     0          
La6      La     0.506023333333     0.872136666667     0.332435000000     0          
La6      La     0.493976666667     0.794530000000     0.082435000000     0          
La6      La     0.506023333333     0.872136666667     0.832435000000     0          
La6      La     0.493976666667     0.794530000000     0.582435000000     0          
La6      La     0.839356666667     0.205470000000     0.332435000000     0          
La6      La     0.827310000000     0.127863333333     0.082435000000     0          
La6      La     0.839356666667     0.205470000000     0.832435000000     0          
La6      La     0.827310000000     0.127863333333     0.582435000000     0          
La6      La     0.839356666667     0.538803333333     0.332435000000     0          
La6      La     0.827310000000     0.461196666667     0.082435000000     0          
La6      La     0.839356666667     0.538803333333     0.832435000000     0          
La6      La     0.827310000000     0.461196666667     0.582435000000     0          
La6      La     0.839356666667     0.872136666667     0.332435000000     0          
La6      La     0.827310000000     0.794530000000     0.082435000000     0          
La6      La     0.839356666667     0.872136666667     0.832435000000     0          
La6      La     0.827310000000     0.794530000000     0.582435000000     0          
O16      O      0.052100000000     0.017666666667     0.339150000000     0          
O16      O      0.281233333333     0.315666666667     0.089150000000     0          
O16      O      0.052100000000     0.017666666667     0.839150000000     0          
O16      O      0.281233333333     0.315666666667     0.589150000000     0          
O16      O      0.052100000000     0.351000000000     0.339150000000     0          
O16      O      0.281233333333     0.649000000000     0.089150000000     0          
O16      O      0.052100000000     0.351000000000     0.839150000000     0          
O16      O      0.281233333333     0.649000000000     0.589150000000     0          
O16      O      0.052100000000     0.684333333333     0.339150000000     0          
O16      O      0.281233333333     0.982333333333     0.089150000000     0          
O16      O      0.052100000000     0.684333333333     0.839150000000     0          
O16      O      0.281233333333     0.982333333333     0.589150000000     0          
O16      O      0.385433333333     0.017666666667     0.339150000000     0          
O16      O      0.614566666667     0.315666666667     0.089150000000     0          
O16      O      0.385433333333     0.017666666667     0.839150000000     0          
O16      O      0.614566666667     0.315666666667     0.589150000000     0          
O16      O      0.385433333333     0.351000000000     0.339150000000     0          
O16      O      0.614566666667     0.649000000000     0.089150000000     0          
O16      O      0.385433333333     0.351000000000     0.839150000000     0          
O16      O      0.614566666667     0.649000000000     0.589150000000     0          
O16      O      0.385433333333     0.684333333333     0.339150000000     0          
O16      O      0.614566666667     0.982333333333     0.089150000000     0          
O16      O      0.385433333333     0.684333333333     0.839150000000     0          
O16      O      0.614566666667     0.982333333333     0.589150000000     0          
O16      O      0.718766666667     0.017666666667     0.339150000000     0          
O16      O      0.947900000000     0.315666666667     0.089150000000     0          
O16      O      0.718766666667     0.017666666667     0.839150000000     0          
O16      O      0.947900000000     0.315666666667     0.589150000000     0          
O16      O      0.718766666667     0.351000000000     0.339150000000     0          
O16      O      0.947900000000     0.649000000000     0.089150000000     0          
O16      O      0.718766666667     0.351000000000     0.839150000000     0          
O16      O      0.947900000000     0.649000000000     0.589150000000     0          
O16      O      0.718766666667     0.684333333333     0.339150000000     0          
O16      O      0.947900000000     0.982333333333     0.089150000000     0          
O16      O      0.718766666667     0.684333333333     0.839150000000     0          
O16      O      0.947900000000     0.982333333333     0.589150000000     0          
O17      O      0.236766666667     0.067566666667     0.418650000000     0          
O17      O      0.096566666667     0.265766666667     0.168650000000     0          
O17      O      0.236766666667     0.067566666667     0.918650000000     0          
O17      O      0.096566666667     0.265766666667     0.668650000000     0          
O17      O      0.236766666667     0.400900000000     0.418650000000     0          
O17      O      0.096566666667     0.599100000000     0.168650000000     0          
O17      O      0.236766666667     0.400900000000     0.918650000000     0          
O17      O      0.096566666667     0.599100000000     0.668650000000     0          
O17      O      0.236766666667     0.734233333333     0.418650000000     0          
O17      O      0.096566666667     0.932433333333     0.168650000000     0          
O17      O      0.236766666667     0.734233333333     0.918650000000     0          
O17      O      0.096566666667     0.932433333333     0.668650000000     0          
O17      O      0.570100000000     0.067566666667     0.418650000000     0          
O17      O      0.429900000000     0.265766666667     0.168650000000     0          
O17      O      0.570100000000     0.067566666667     0.918650000000     0          
O17      O      0.429900000000     0.265766666667     0.668650000000     0          
O17      O      0.570100000000     0.400900000000     0.418650000000     0          
O17      O      0.429900000000     0.599100000000     0.168650000000     0          
O17      O      0.570100000000     0.400900000000     0.918650000000     0          
O17      O      0.429900000000     0.599100000000     0.668650000000     0          
O17      O      0.570100000000     0.734233333333     0.418650000000     0          
O17      O      0.429900000000     0.932433333333     0.168650000000     0          
O17      O      0.570100000000     0.734233333333     0.918650000000     0          
O17      O      0.429900000000     0.932433333333     0.668650000000     0          
O17      O      0.903433333333     0.067566666667     0.418650000000     0          
O17      O      0.763233333333     0.265766666667     0.168650000000     0          
O17      O      0.903433333333     0.067566666667     0.918650000000     0          
O17      O      0.763233333333     0.265766666667     0.668650000000     0          
O17      O      0.903433333333     0.400900000000     0.418650000000     0          
O17      O      0.763233333333     0.599100000000     0.168650000000     0          
O17      O      0.903433333333     0.400900000000     0.918650000000     0          
O17      O      0.763233333333     0.599100000000     0.668650000000     0          
O17      O      0.903433333333     0.734233333333     0.418650000000     0          
O17      O      0.763233333333     0.932433333333     0.168650000000     0          
O17      O      0.903433333333     0.734233333333     0.918650000000     0          
O17      O      0.763233333333     0.932433333333     0.668650000000     0          
O19      O      0.279066666667     0.277633333333     0.355300000000     0          
O19      O      0.054266666667     0.055700000000     0.105300000000     0          
O19      O      0.279066666667     0.277633333333     0.855300000000     0          
O19      O      0.054266666667     0.055700000000     0.605300000000     0          
O19      O      0.279066666667     0.610966666667     0.355300000000     0          
O19      O      0.054266666667     0.389033333333     0.105300000000     0          
O19      O      0.279066666667     0.610966666667     0.855300000000     0          
O19      O      0.054266666667     0.389033333333     0.605300000000     0          
O19      O      0.279066666667     0.944300000000     0.355300000000     0          
O19      O      0.054266666667     0.722366666667     0.105300000000     0          
O19      O      0.279066666667     0.944300000000     0.855300000000     0          
O19      O      0.054266666667     0.722366666667     0.605300000000     0          
O19      O      0.612400000000     0.277633333333     0.355300000000     0          
O19      O      0.387600000000     0.055700000000     0.105300000000     0          
O19      O      0.612400000000     0.277633333333     0.855300000000     0          
O19      O      0.387600000000     0.055700000000     0.605300000000     0          
O19      O      0.612400000000     0.610966666667     0.355300000000     0          
O19      O      0.387600000000     0.389033333333     0.105300000000     0          
O19      O      0.612400000000     0.610966666667     0.855300000000     0          
O19      O      0.387600000000     0.389033333333     0.605300000000     0          
O19      O      0.612400000000     0.944300000000     0.355300000000     0          
O19      O      0.387600000000     0.722366666667     0.105300000000     0          
O19      O      0.612400000000     0.944300000000     0.855300000000     0          
O19      O      0.387600000000     0.722366666667     0.605300000000     0          
O19      O      0.945733333333     0.277633333333     0.355300000000     0          
O19      O      0.720933333333     0.055700000000     0.105300000000     0          
O19      O      0.945733333333     0.277633333333     0.855300000000     0          
O19      O      0.720933333333     0.055700000000     0.605300000000     0          
O19      O      0.945733333333     0.610966666667     0.355300000000     0          
O19      O      0.720933333333     0.389033333333     0.105300000000     0          
O19      O      0.945733333333     0.610966666667     0.855300000000     0          
O19      O      0.720933333333     0.389033333333     0.605300000000     0          
O19      O      0.945733333333     0.944300000000     0.355300000000     0          
O19      O      0.720933333333     0.722366666667     0.105300000000     0          
O19      O      0.945733333333     0.944300000000     0.855300000000     0          
O19      O      0.720933333333     0.722366666667     0.605300000000     0          
O20      O      0.283400000000     0.057900000000     0.474750000000     0          
O20      O      0.216600000000     0.224566666667     0.224750000000     0          
O20      O      0.283400000000     0.057900000000     0.974750000000     0          
O20      O      0.216600000000     0.224566666667     0.724750000000     0          
O20      O      0.283400000000     0.391233333333     0.474750000000     0          
O20      O      0.216600000000     0.557900000000     0.224750000000     0          
O20      O      0.283400000000     0.391233333333     0.974750000000     0          
O20      O      0.216600000000     0.557900000000     0.724750000000     0          
O20      O      0.283400000000     0.724566666667     0.474750000000     0          
O20      O      0.216600000000     0.891233333333     0.224750000000     0          
O20      O      0.283400000000     0.724566666667     0.974750000000     0          
O20      O      0.216600000000     0.891233333333     0.724750000000     0          
O20      O      0.616733333333     0.057900000000     0.474750000000     0          
O20      O      0.549933333333     0.224566666667     0.224750000000     0          
O20      O      0.616733333333     0.057900000000     0.974750000000     0          
O20      O      0.549933333333     0.224566666667     0.724750000000     0          
O20      O      0.616733333333     0.391233333333     0.474750000000     0          
O20      O      0.549933333333     0.557900000000     0.224750000000     0          
O20      O      0.616733333333     0.391233333333     0.974750000000     0          
O20      O      0.549933333333     0.557900000000     0.724750000000     0          
O20      O      0.616733333333     0.724566666667     0.474750000000     0          
O20      O      0.549933333333     0.891233333333     0.224750000000     0          
O20      O      0.616733333333     0.724566666667     0.974750000000     0          
O20      O      0.549933333333     0.891233333333     0.724750000000     0          
O20      O      0.950066666667     0.057900000000     0.474750000000     0          
O20      O      0.883266666667     0.224566666667     0.224750000000     0          
O20      O      0.950066666667     0.057900000000     0.974750000000     0          
O20      O      0.883266666667     0.224566666667     0.724750000000     0          
O20      O      0.950066666667     0.391233333333     0.474750000000     0          
O20      O      0.883266666667     0.557900000000     0.224750000000     0          
O20      O      0.950066666667     0.391233333333     0.974750000000     0          
O20      O      0.883266666667     0.557900000000     0.724750000000     0          
O20      O      0.950066666667     0.724566666667     0.474750000000     0          
O20      O      0.883266666667     0.891233333333     0.224750000000     0          
O20      O      0.950066666667     0.724566666667     0.974750000000     0          
O20      O      0.883266666667     0.891233333333     0.724750000000     0          
O21      O      0.308200000000     0.129100000000     0.497750000000     0          
O21      O      0.191800000000     0.295766666667     0.247750000000     0          
O21      O      0.308200000000     0.129100000000     0.997750000000     0          
O21      O      0.191800000000     0.295766666667     0.747750000000     0          
O21      O      0.308200000000     0.462433333333     0.497750000000     0          
O21      O      0.191800000000     0.629100000000     0.247750000000     0          
O21      O      0.308200000000     0.462433333333     0.997750000000     0          
O21      O      0.191800000000     0.629100000000     0.747750000000     0          
O21      O      0.308200000000     0.795766666667     0.497750000000     0          
O21      O      0.191800000000     0.962433333333     0.247750000000     0          
O21      O      0.308200000000     0.795766666667     0.997750000000     0          
O21      O      0.191800000000     0.962433333333     0.747750000000     0          
O21      O      0.641533333333     0.129100000000     0.497750000000     0          
O21      O      0.525133333333     0.295766666667     0.247750000000     0          
O21      O      0.641533333333     0.129100000000     0.997750000000     0          
O21      O      0.525133333333     0.295766666667     0.747750000000     0          
O21      O      0.641533333333     0.462433333333     0.497750000000     0          
O21      O      0.525133333333     0.629100000000     0.247750000000     0          
O21      O      0.641533333333     0.462433333333     0.997750000000     0          
O21      O      0.525133333333     0.629100000000     0.747750000000     0          
O21      O      0.641533333333     0.795766666667     0.497750000000     0          
O21      O      0.525133333333     0.962433333333     0.247750000000     0          
O21      O      0.641533333333     0.795766666667     0.997750000000     0          
O21      O      0.525133333333     0.962433333333     0.747750000000     0          
O21      O      0.974866666667     0.129100000000     0.497750000000     0          
O21      O      0.858466666667     0.295766666667     0.247750000000     0          
O21      O      0.974866666667     0.129100000000     0.997750000000     0          
O21      O      0.858466666667     0.295766666667     0.747750000000     0          
O21      O      0.974866666667     0.462433333333     0.497750000000     0          
O21      O      0.858466666667     0.629100000000     0.247750000000     0          
O21      O      0.974866666667     0.462433333333     0.997750000000     0          
O21      O      0.858466666667     0.629100000000     0.747750000000     0          
O21      O      0.974866666667     0.795766666667     0.497750000000     0          
O21      O      0.858466666667     0.962433333333     0.247750000000     0          
O21      O      0.974866666667     0.795766666667     0.997750000000     0          
O21      O      0.858466666667     0.962433333333     0.747750000000     0          


