
#######################################################################
#
#                 Cambridge Crystallographic Data Centre
#                                CCDC 
#
#######################################################################
#
# If this CIF has been generated from an entry in the Cambridge 
# Structural Database, then it will include bibliographic, chemical, 
# crystal, experimental, refinement or atomic coordinate data resulting 
# from the CCDC's data processing and validation procedures.
#
#######################################################################

data_ABEXEM
_chemical_formula_moiety         '(C14 H10 La2 N4 O15)n,5n(H2 O1)'
_chemical_name_systematic        
'catena-((\m~4~-pyrimidine-4,6-dicarboxylato)-(\m~3~-pyrimidine-4,6-dicarboxylato)-(\m~2~-oxalato)-triaqua-di-lanthanum(iii) pentahydrate)'
_symmetry_cell_setting           orthorhombic
_symmetry_space_group_name_H-M   'P n a 21'
_symmetry_Int_Tables_number      33
_space_group_name_Hall           'P 2c -2n'
loop_
_symmetry_equiv_pos_site_id
_symmetry_equiv_pos_as_xyz
1 x,y,z
2 -x,-y,1/2+z
3 1/2-x,1/2+y,1/2+z
4 1/2+x,1/2-y,z
_cell_length_a                   12.1350(5)
_cell_length_b                   11.0417(4)
_cell_length_c                   19.6509(8)
_cell_angle_alpha                90
_cell_angle_beta                 90
_cell_angle_gamma                90
_cell_volume                     2633.04
_exptl_crystal_colour            colorless
_exptl_crystal_description       'rectangular block'
_cell_formula_units_Z            4
loop_
_atom_site_label
_atom_site_type_symbol
_atom_site_fract_x
_atom_site_fract_y
_atom_site_fract_z
La1 La 0.84041(3) 0.36417(3) 0.87864(2)
La2 La 1.01807(3) -0.11641(3) 0.66487(2)
N1 N 0.8736(6) 0.2749(6) 0.7503(4)
C1 C 0.9327(7) 0.1763(7) 0.7370(4)
H1 H 0.9875 0.1550 0.7678
N2 N 0.9192(6) 0.1066(6) 0.6830(3)
C2 C 0.8424(7) 0.1375(7) 0.6373(4)
C3 C 0.7820(7) 0.2413(7) 0.6451(4)
H2 H 0.7322 0.2663 0.6120
C4 C 0.7978(7) 0.3073(7) 0.7037(4)
C5 C 0.7242(6) 0.4135(7) 0.7225(4)
O1 O 0.7361(5) 0.4569(5) 0.7810(3)
O2 O 0.6563(5) 0.4470(5) 0.6783(3)
C6 C 0.8240(7) 0.0527(7) 0.5777(4)
O3 O 0.8845(5) -0.0385(5) 0.5739(3)
O4 O 0.7507(7) 0.0827(6) 0.5369(4)
N3 N 0.9911(6) 0.5000(6) 0.8037(4)
C7 C 0.9725(7) 0.6017(8) 0.7694(4)
H3 H 0.9002 0.6297 0.7684
N4 N 1.0469(6) 0.6672(6) 0.7364(4)
C8 C 1.1501(6) 0.6266(7) 0.7394(4)
C9 C 1.1802(7) 0.5196(7) 0.7736(5)
H4 H 1.2526 0.4924 0.7758
C10 C 1.0941(7) 0.4587(6) 0.8035(4)
C11 C 1.1154(6) 0.3387(6) 0.8419(4)
O5 O 1.0345(4) 0.2902(4) 0.8714(3)
O6 O 1.2103(5) 0.2973(5) 0.8373(3)
C12 C 1.2390(7) 0.7042(7) 0.7062(4)
O7 O 1.2082(5) 0.7992(5) 0.6778(3)
O8 O 1.3372(5) 0.6671(5) 0.7106(3)
C13 C 1.1128(7) -0.1780(7) 0.5088(4)
O9 O 1.1147(5) -0.0912(5) 0.5517(3)
O10 O 1.1498(5) -0.1737(5) 0.4495(3)
C14 C 1.0616(7) -0.2992(7) 0.5320(4)
O11 O 1.0057(6) -0.2959(5) 0.5869(3)
O12 O 1.0754(5) -0.3873(5) 0.4955(3)
La3 La 1.15959(3) -0.36417(3) 0.37864(2)
La4 La 1.34041(3) 0.13583(3) 0.87864(2)
La5 La 1.01807(3) 0.88359(3) 0.66487(2)
La6 La 0.51807(3) 0.61641(3) 0.66487(2)
La7 La 1.51807(3) 0.61641(3) 0.66487(2)
O16 O 1.1563(5) 0.0530(5) 0.6783(3)
N5 N 1.0469(6) -0.3328(6) 0.7364(4)
O17 O 0.7103(5) 0.2027(5) 0.8373(3)
O18 O 1.2082(5) -0.2008(5) 0.6778(3)
O19 O 0.8372(5) -0.1671(5) 0.7106(3)
O20 O 0.8502(5) 0.1737(5) 0.9495(3)
O21 O 0.9246(5) 0.3873(5) 0.9955(3)
loop_
_geom_bond_atom_site_label_1
_geom_bond_atom_site_label_2
_geom_bond_site_symmetry_1
_geom_bond_site_symmetry_2
La1 N1 1_555 1_555
La2 N2 1_555 1_555
N1 C1 1_555 1_555
C1 H1 1_555 1_555
N2 C1 1_555 1_555
C2 N2 1_555 1_555
C3 C2 1_555 1_555
H2 C3 1_555 1_555
C4 N1 1_555 1_555
C5 C4 1_555 1_555
O1 La1 1_555 1_555
O2 C5 1_555 1_555
C6 C2 1_555 1_555
O3 La2 1_555 1_555
O4 C6 1_555 1_555
N3 La1 1_555 1_555
C7 N3 1_555 1_555
H3 C7 1_555 1_555
N4 C7 1_555 1_555
C8 N4 1_555 1_555
C9 C8 1_555 1_555
H4 C9 1_555 1_555
C10 N3 1_555 1_555
C11 C10 1_555 1_555
O5 La1 1_555 1_555
O6 C11 1_555 1_555
C12 C8 1_555 1_555
O7 C12 1_555 1_555
O8 C12 1_555 1_555
C13 O9 1_555 1_555
O9 La2 1_555 1_555
O10 C13 1_555 1_555
C14 C13 1_555 1_555
O11 La2 1_555 1_555
O12 C14 1_555 1_555
La3 O10 1_555 1_555
La4 O6 1_555 1_555
La5 N4 1_555 1_555
La6 O2 1_555 1_555
La7 O8 1_555 1_555
O16 La2 1_555 1_555
N5 La2 1_555 1_555
O17 La1 1_555 1_555
O18 La2 1_555 1_555
O19 La2 1_555 1_555
O20 La1 1_555 1_555
O21 La1 1_555 1_555
C3 C4 1_555 1_555
C5 O1 1_555 1_555
C6 O3 1_555 1_555
C9 C10 1_555 1_555
C11 O5 1_555 1_555
O7 La5 1_555 1_555
C14 O11 1_555 1_555
O12 La3 1_555 1_555

#END
